Global frequency set at 1000000000000 ticks per second
gem5 Simulator System.  https://www.gem5.org
gem5 is copyrighted software; use the --copyright option for details.

gem5 version 24.0.0.1
gem5 compiled Dec 13 2024 20:52:41
gem5 started Dec 13 2024 20:55:50
gem5 executing on newbuntu, pid 33240
command line: /home/vboxuser/cmput499/gem5-24.0.0.1/build/ARM/gem5.opt starter_se.py --benchmark=leela --cpu=o3 --mem-size=10GB

r.size:  10737418240
Command to execute:  ['../../../../cpu2017/binaries/leela_r', '../../../../cpu2017/data/leela/input/ref.sgf']
-nan
-nan
-nan
-nan
-nan
-nan
-nan
-nan
-nan
-nan
-nan
-nan
-nan
-nan
-nan
-nan
-nan
-nan
-nan
-nan
-nan
-nan
-nan
-nan
-nan
-nan
-nan
-nan
-nan
-nan
-nan
-nan
-nan
-nan
-nan
-nan
-nan
-nan
-nan
-nan
-nan
-nan
-nan
-nan
-nan
-nan
-nan
-nan
-nan
-nan
-nan
-nan
-nan
-nan
-nan
-nan
-nan
-nan
-nan
-nan
-nan
-nan
-nan
-nan
-nan
-nan
-nan
-nan
-nan
-nan
-nan
-nan
-nan
-nan
-nan
-nan
-nan
-nan
-nan
-nan
-nan
-nan
-nan
-nan
-nan
-nan
-nan
-nan
-nan
-nan
-nan
-nan
-nan
-nan
-nan
-nan
-nan
-nan
-nan
-nan
-nan
-nan
-nan
-nan
-nan
-nan
-nan
-nan
-nan
-nan
-nan
-nan
-nan
-nan
-nan
-nan
-nan
-nan
-nan
-nan
-nan
-nan
-nan
-nan
-nan
-nan
-nan
-nan
-nan
-nan
-nan
-nan
-nan
-nan
-nan
-nan
-nan
-nan
-nan
-nan
-nan
-nan
-nan
-nan
-nan
-nan
-nan
-nan
-nan
-nan
-nan
-nan
-nan
-nan
-nan
-nan
-nan
-nan
-nan
-nan
-nan
-nan
-nan
-nan
-nan
-nan
-nan
-nan
-nan
-nan
-nan
-nan
-nan
-nan
-nan
-nan
-nan
-nan
-nan
-nan
-nan
-nan
-nan
-nan
-nan
-nan
-nan
-nan
-nan
-nan
-nan
-nan
-nan
-nan
-nan
-nan
-nan
-nan
-nan
-nan
-nan
-nan
-nan
-nan
0
0
0
0
0
0
0
0
0
0
0
0
0
0
0
0
0
0
0
0
0
0
0
0
0
0
0
0
0
0
0
0
0
0
0
0
0
0
0
0
0
0
0
0
0
0
0
0
0
0
0
0
0
0
0
0
0
0
0
0
0
0
0
0
0
0
0
0
0
0
0
0
0
0
0
0
0
0
0
0
0
0
0
0
0
0
0
0
0
0
0
0
0
0
0
0
0
0
0
0
0
0
0
0
0
0
0
0
0
0
0
0
0
0
0
0
0
0
0
0
0
0
0
0
0
0
0
0
0
0
0
0
0
0
0
0
0
0
0
0
0
0
0
0
0
0
0
0
0
0
0
0
0
0
0
0
0
0
0
0
0
0
0
0
0
0
0
0
0
0
0
0
0
0
0
0
0
0
0
0
0
0
0
0
0
0
0
0
0
0
0
0
0
0
0
0
0
0
0
0
0
0
0
0
0
0
0
0
0
0
0
0
0
0
0
0
0
0
0
0
0
0
0
0
0
0
0
0
0
0
0
0
0
0
0
0
0
0
0
0
0
0
0
0
0
0
0
0
0
0
0
0
0
0
0
0
0
0
0
0
0
0
0
0
0
0
0
0
0
0
0
0
0
0
0
0
0
0
0
0
0
0
0
0
0
0
0
0
0
0
0
0
0
0
0
0
0
0
0
0
0
0
0
0
0
0
0
0
0
0
0
0
0
0
0
0
0
0
0
0
0
0
0
0
0
0
0
0
0
0
0
0
0
0
0
0
0
0
0
0
0
0
0
0
0
0
0
0
0
0
0
0
0
0
0
0
0
0
0
0
0
0
0
0
0
0
0
0
0
0
0
0
0
0
0
0
0
0
0
0
0
0
0
0
0
0
0
0
0
0
0
0
0
0
0
0
0
0
0
0
0
0
0
0
0
0
0
0
0
0
0
0
0
0
0
0
0
0
0
0
0
0.2
0.333333
0.428571
0.5
0.5
0.5
0.5
0.5
0.5
0.5
0.5
0.5
0.5
0.5
0.5
0.5
0.5
0.5
0.5
0.555556
0.6
0.636364
0.666667
0.692308
0.714286
0.733333
0.705882
0.705882
0.705882
0.705882
0.705882
0.705882
0.705882
0.705882
0.705882
0.705882
0.705882
0.705882
0.705882
0.705882
0.705882
0.705882
0.705882
0.705882
0.705882
0.705882
0.705882
0.705882
0.722222
0.722222
0.722222
0.777778
0.777778
0.777778
0.736842
0.736842
0.736842
0.736842
0.736842
0.736842
0.736842
0.736842
0.736842
0.736842
0.736842
0.736842
0.736842
0.736842
0.736842
0.736842
0.736842
0.736842
0.736842
0.736842
0.736842
0.736842
0.736842
0.736842
0.736842
0.736842
0.736842
0.7
0.7
0.7
0.7
0.7
0.7
0.7
0.7
0.7
0.7
0.666667
0.666667
0.666667
0.666667
0.666667
0.666667
0.666667
0.666667
0.666667
0.666667
0.666667
0.666667
0.666667
0.666667
0.666667
0.666667
0.636364
0.608696
0.608696
0.608696
0.608696
0.583333
0.583333
0.56
0.56
0.56
0.56
0.56
0.56
0.56
0.538462
0.538462
0.518519
0.518519
0.518519
0.518519
0.518519
0.518519
0.518519
0.518519
0.518519
0.518519
0.5
0.482759
0.466667
0.466667
0.4375
0.4375
0.4375
0.4375
0.4375
0.4375
0.4375
0.4375
0.4375
0.424242
0.411765
0.411765
0.4
0.4
0.388889
0.388889
0.378378
0.378378
0.368421
0.368421
0.358974
0.358974
0.358974
0.358974
0.358974
0.358974
0.358974
0.358974
0.358974
0.35
0.35
0.35
0.35
0.35
0.35
0.35
0.35
0.35
0.35
0.35
0.35
0.35
0.35
0.35
0.35
0.35
0.35
0.35
0.35
0.35
0.341463
0.333333
0.333333
0.333333
0.333333
0.333333
0.333333
0.333333
0.333333
0.333333
0.333333
0.333333
0.333333
0.333333
0.333333
0.333333
0.333333
0.333333
0.333333
0.333333
0.333333
0.325581
0.325581
0.318182
0.311111
0.304348
0.304348
0.304348
0.304348
0.304348
0.304348
0.304348
0.304348
0.304348
0.304348
0.297872
0.297872
0.297872
0.297872
0.297872
0.297872
0.297872
0.297872
0.297872
0.297872
0.297872
0.297872
0.297872
0.297872
0.297872
0.297872
0.297872
0.297872
0.297872
0.297872
0.297872
0.297872
0.297872
0.297872
0.297872
0.297872
0.297872
0.291667
0.285714
0.285714
0.285714
0.285714
0.285714
0.285714
0.285714
0.285714
0.285714
0.285714
0.285714
0.285714
0.285714
0.285714
0.285714
0.285714
0.285714
0.285714
0.285714
0.285714
0.285714
0.28
0.28
0.28
0.28
0.28
0.28
0.28
0.28
0.28
0.28
0.28
0.28
0.28
0.28
0.28
0.27451
0.27451
0.269231
0.269231
0.269231
0.269231
0.269231
0.269231
0.269231
0.269231
0.269231
0.269231
0.269231
0.269231
0.269231
0.269231
0.269231
0.269231
0.269231
0.269231
0.264151
0.264151
0.264151
0.264151
0.264151
0.264151
0.264151
0.264151
0.264151
0.264151
0.264151
0.264151
0.264151
0.264151
0.264151
0.264151
0.264151
0.264151
0.259259
0.259259
0.259259
0.259259
0.259259
0.259259
0.259259
0.259259
0.259259
0.259259
0.259259
0.259259
0.259259
0.259259
0.259259
0.259259
0.259259
0.259259
0.259259
0.259259
0.259259
0.259259
0.259259
0.259259
0.25
0.25
0.25
0.25
0.25
0.25
0.25
0.25
0.25
0.25
0.25
0.25
0.25
0.25
0.25
0.25
0.25
0.25
0.25
0.25
0.25
0.25
0.25
0.25
0.25
0.25
0.25
0.25
0.25
0.25
0.25
0.25
0.25
0.258621
0.258065
0.216216
0.216216
0.197674
0.197674
0.197674
0.197674
0.197674
0.197674
0.197674
0.195402
0.195402
0.195402
0.195402
0.193182
0.193182
0.193182
0.193182
0.193182
0.193182
0.193182
0.193182
0.193182
0.193182
0.193182
0.193182
0.193182
0.193182
0.193182
0.193182
0.193182
0.193182
0.193182
0.193182
0.193182
0.193182
0.193182
0.193182
0.191011
0.191011
0.191011
0.191011
0.191011
0.191011
0.191011
0.191011
0.191011
0.191011
0.191011
0.191011
0.191011
0.191011
0.191011
0.191011
0.191011
0.191011
0.191011
0.191011
0.191011
0.191011
0.2
0.197802
0.197802
0.195652
0.195652
0.195652
0.195652
0.193548
0.193548
0.193548
0.193548
0.191489
0.189474
0.189474
0.189474
0.189474
0.189474
0.189474
0.189474
0.189474
0.189474
0.189474
0.189474
0.189474
0.189474
0.189474
0.189474
0.189474
0.189474
0.189474
0.189474
0.189474
0.189474
0.189474
0.189474
0.189474
0.189474
0.189474
0.189474
0.189474
0.189474
0.189474
0.189474
0.189474
0.189474
0.189474
0.189474
0.189474
0.189474
0.189474
0.189474
0.189474
0.189474
0.189474
0.189474
0.189474
0.189474
0.189474
0.189474
0.189474
0.1875
0.1875
0.1875
0.1875
0.1875
0.1875
0.1875
0.185567
0.185567
0.185567
0.185567
0.185567
0.185567
0.185567
0.185567
0.185567
0.185567
0.185567
0.185567
0.185567
0.185567
0.185567
0.185567
0.185567
0.185567
0.185567
0.185567
0.185567
0.185567
0.185567
0.185567
0.185567
0.185567
0.185567
0.185567
0.185567
0.185567
0.185567
0.185567
0.185567
0.185567
0.185567
0.185567
0.185567
0.185567
0.185567
0.185567
0.185567
0.185567
0.185567
0.185567
0.185567
0.185567
0.185567
0.185567
0.185567
0.185567
0.185567
0.185567
0.185567
0.185567
0.185567
0.185567
0.185567
0.185567
0.185567
0.185567
0.185567
0.185567
0.185567
0.185567
0.185567
0.185567
0.185567
0.185567
0.185567
0.185567
0.185567
0.185567
0.185567
0.185567
0.185567
0.185567
0.185567
0.185567
0.185567
0.185567
0.185567
0.185567
0.185567
0.185567
0.185567
0.185567
0.185567
0.185567
0.183673
0.183673
0.183673
0.183673
0.183673
0.183673
0.183673
0.183673
0.183673
0.183673
0.183673
0.183673
0.183673
0.183673
0.183673
0.183673
0.183673
0.183673
0.181818
0.181818
0.181818
0.18
0.18
0.18
0.18
0.18
0.178218
0.176471
0.176471
0.176471
0.174757
0.174757
0.174757
0.174757
0.174757
0.174757
0.174757
0.174757
0.173077
0.173077
0.171429
0.171429
0.171429
0.171429
0.171429
0.169811
0.169811
0.169811
0.168224
0.168224
0.168224
0.168224
0.168224
0.168224
0.168224
0.168224
0.166667
0.166667
0.165138
0.165138
0.165138
0.165138
0.165138
0.165138
0.165138
0.165138
0.163636
0.163636
0.162162
0.162162
0.162162
0.162162
0.162162
0.162162
0.159292
0.159292
0.159292
0.159292
0.159292
0.159292
0.159292
0.157895
0.157895
0.155172
0.155172
0.155172
0.155172
0.153846
0.153846
0.153846
0.153846
0.152542
0.152542
0.151261
0.151261
0.151261
0.151261
0.151261
0.15
0.15
0.15
0.14876
0.14876
0.14876
0.14876
0.14876
0.14876
0.14876
0.147541
0.147541
0.146341
0.146341
0.146341
0.146341
0.145161
0.145161
0.145161
0.144
0.144
0.144
0.144
0.144
0.142857
0.142857
0.142857
0.142857
0.141732
0.141732
0.141732
0.141732
0.140625
0.140625
0.140625
0.140625
0.140625
0.140625
0.140625
0.140625
0.140625
0.140625
0.139535
0.139535
0.139535
0.138462
0.138462
0.138462
0.138462
0.138462
0.138462
0.136364
0.136364
0.136364
0.136364
0.136364
0.136364
0.135338
0.135338
0.133333
0.133333
0.132353
0.132353
0.132353
0.132353
0.132353
0.132353
0.131387
0.131387
0.131387
0.131387
0.130435
0.129496
0.129496
0.128571
0.128571
0.128571
0.128571
0.12766
0.12766
0.12766
0.12766
0.12766
0.12766
0.12766
0.126761
0.125874
0.125874
0.125874
0.125
0.125
0.125
0.125
0.125
0.125
0.125
0.125
0.123288
0.123288
0.123288
0.123288
0.123288
0.123288
0.123288
0.123288
0.123288
0.123288
0.121622
0.121622
0.121622
0.121622
0.121622
0.121622
0.121622
0.120805
0.120805
0.120805
0.120805
0.120805
0.120805
0.120805
0.120805
0.12
0.12
0.12
0.118421
0.118421
0.117647
0.117647
0.117647
0.117647
0.117647
0.117647
0.116883
0.116883
0.116883
0.116883
0.116129
0.116129
0.116129
0.116129
0.116129
0.116129
0.11465
0.11465
0.11465
0.11465
0.11465
0.11465
0.11465
0.11465
0.11465
0.11465
0.11465
0.11465
0.11465
0.113924
0.113924
0.113924
0.1125
0.1125
0.1125
0.1125
0.111801
0.111801
0.111801
0.111801
0.111801
0.111801
0.111801
0.111801
0.111111
0.111111
0.111111
0.111111
0.110429
0.110429
0.110429
0.110429
0.109756
0.109756
0.109756
0.109756
0.109756
0.109756
0.109756
0.109756
0.109756
0.109756
0.108434
0.108434
0.108434
0.108434
0.108434
0.108434
0.107784
0.107784
0.107784
0.107784
0.107784
0.107784
0.107143
0.107143
0.107143
0.107143
0.106509
0.105263
0.105263
0.105263
0.105263
0.105263
0.105263
0.105263
0.105263
0.105263
0.104651
0.104651
0.104651
0.104651
0.104651
0.104651
0.104651
0.104651
0.104651
0.104651
0.102857
0.102857
0.102857
0.102857
0.102857
0.102857
0.102857
0.102857
0.102857
0.102857
0.102857
0.102857
0.102857
0.102857
0.102273
0.102273
0.102273
0.102273
0.100559
0.100559
0.100559
0.100559
0.100559
0.100559
0.100559
0.100559
0.100559
0.100559
0.1
0.1
0.1
0.1
0.1
0.0983607
0.0983607
0.0983607
0.0983607
0.0983607
0.0983607
0.0983607
0.0983607
0.0983607
0.0983607
0.0983607
0.0983607
0.0983607
0.0983607
0.0983607
0.0972973
0.0972973
0.0972973
0.0972973
0.0972973
0.0972973
0.0972973
0.0972973
0.0967742
0.0967742
0.0967742
0.0967742
0.0967742
0.0967742
0.0967742
0.0967742
0.0952381
0.0952381
0.0952381
0.0952381
0.0952381
0.0952381
0.0952381
0.0952381
0.0952381
0.0952381
0.0952381
0.0952381
0.0947368
0.0947368
0.0947368
0.0947368
0.0947368
0.0947368
0.0947368
0.0947368
0.0947368
0.0947368
0.0942408
0.0942408
0.0942408
0.09375
0.09375
0.09375
0.09375
0.0927835
0.0927835
0.0927835
0.0927835
0.0927835
0.0927835
0.0927835
0.0927835
0.0927835
0.0927835
0.0927835
0.0927835
0.0923077
0.0923077
0.0923077
0.0923077
0.0923077
0.0923077
0.0918367
0.0918367
0.0918367
0.0918367
0.0918367
0.0918367
0.0918367
0.0918367
0.0913706
0.0913706
0.0913706
0.0913706
0.0904523
0.0904523
0.0904523
0.0904523
0.0904523
0.0904523
0.0904523
0.0904523
0.0904523
0.09
0.09
0.09
0.09
0.09
0.09
0.0895522
0.0895522
0.0895522
0.0895522
0.0891089
0.0891089
0.0891089
0.08867
0.08867
0.08867
0.08867
0.0882353
0.0882353
0.0882353
0.0882353
0.0882353
0.0882353
0.0878049
0.0878049
0.0878049
0.0878049
0.0873786
0.0873786
0.0873786
0.0873786
0.0873786
0.0873786
0.0865385
0.0865385
0.0865385
0.0865385
0.0865385
0.0865385
0.0865385
0.0865385
0.0865385
0.0865385
0.0861244
0.0861244
0.0861244
0.0861244
0.0861244
0.0861244
0.0853081
0.0853081
0.0853081
0.0853081
0.0853081
0.0853081
0.0853081
0.0853081
0.0853081
0.0853081
0.084507
0.084507
0.084507
0.084507
0.084507
0.084507
0.084507
0.084507
0.0841121
0.0841121
0.0841121
0.0841121
0.0841121
0.0841121
0.0837209
0.0837209
0.0837209
0.0837209
0.0829493
0.0829493
0.0829493
0.0829493
0.0829493
0.0829493
0.0829493
0.0829493
0.0825688
0.0825688
0.0825688
0.0825688
0.0825688
0.0825688
0.0825688
0.0825688
0.0818182
0.0818182
0.0818182
0.0818182
0.0818182
0.0818182
0.0818182
0.0818182
0.0818182
0.0818182
0.0818182
0.0818182
0.081448
0.081448
0.081448
0.081448
0.081448
0.081448
0.081448
0.081448
0.0803571
0.0803571
0.0803571
0.0803571
0.0803571
0.0803571
0.0803571
0.0803571
0.0803571
0.0803571
0.0803571
0.0803571
0.0803571
0.0803571
0.08
0.08
0.08
0.08
0.0792952
0.0792952
0.0792952
0.0792952
0.0792952
0.0792952
0.0789474
0.0789474
0.0789474
0.0789474
0.0789474
0.0789474
0.0789474
0.0789474
0.0789474
0.0782609
0.0782609
0.0782609
0.0782609
0.0782609
0.0782609
0.0779221
0.0779221
0.0779221
0.0779221
0.0775862
0.0775862
0.0775862
0.0775862
0.0775862
0.0775862
0.0775862
0.0775862
0.0772532
0.0772532
0.0772532
0.0772532
0.0772532
0.0772532
0.0762712
0.0762712
0.0762712
0.0762712
0.0762712
0.0762712
0.0762712
0.0762712
0.0762712
0.0762712
0.0762712
0.0762712
0.0759494
0.0759494
0.0759494
0.0759494
0.0759494
0.0759494
0.075
0.075
0.075
0.075
0.075
0.075
0.075
0.075
0.075
0.075
0.075
0.075
0.0746888
0.0746888
0.0746888
0.0746888
0.0746888
0.0746888
0.0734694
0.0734694
0.0734694
0.0734694
0.0734694
0.0734694
0.0734694
0.0734694
0.0734694
0.0734694
0.0734694
0.0734694
0.0734694
0.0734694
0.0734694
0.0734694
0.0725806
0.0725806
0.0725806
0.0725806
0.0725806
0.0725806
0.0725806
0.0725806
0.0725806
0.0725806
0.072
0.072
0.072
0.072
0.072
0.072
0.072
0.072
0.072
0.072
0.072
0.072
0.0717131
0.0717131
0.0717131
0.0717131
0.0708661
0.0708661
0.0708661
0.0708661
0.0708661
0.0708661
0.0708661
0.0708661
0.0708661
0.0708661
0.0708661
0.0708661
0.0708661
0.0708661
0.0705882
0.0705882
0.0705882
0.0705882
0.0697674
0.0697674
0.0697674
0.0697674
0.0697674
0.0697674
0.0697674
0.0697674
0.0697674
0.0697674
0.0697674
0.0697674
0.0697674
0.0697674
0.0692308
0.0692308
0.0692308
0.0692308
0.0692308
0.0692308
0.0689655
0.0689655
0.0689655
0.0689655
0.0689655
0.0689655
0.0689655
0.0689655
0.0687023
0.0687023
0.0687023
0.0687023
0.0684411
0.0684411
0.0684411
0.0684411
0.0681818
0.0681818
0.0681818
0.0681818
0.0681818
0.0681818
0.0681818
0.0681818
0.0676692
0.0676692
0.0676692
0.0676692
0.0676692
0.0676692
0.0674157
0.0674157
0.0674157
0.0674157
0.0671642
0.0671642
0.0671642
0.0671642
0.0671642
0.0671642
0.0671642
0.0671642
0.0666667
0.0666667
0.0666667
0.0666667
0.0666667
0.0666667
0.0664207
0.0664207
0.0664207
0.0664207
0.0661765
0.0661765
0.0661765
0.0661765
0.0661765
0.0661765
0.0661765
0.0661765
0.0654545
0.0654545
0.0654545
0.0654545
0.0654545
0.0654545
0.0654545
0.0654545
0.0654545
0.0654545
0.0654545
0.0654545
0.0654545
0.0654545
0.0654545
0.0654545
0.0649819
0.0649819
0.0649819
0.0649819
0.0649819
0.0649819
0.0649819
0.0649819
0.0645161
0.0645161
0.0645161
0.0645161
0.0645161
0.0645161
0.0645161
0.0645161
0.0645161
0.0645161
0.0642857
0.0642857
0.0642857
0.0642857
0.0642857
0.0642857
0.0642857
0.0642857
0.0636042
0.0636042
0.0636042
0.0636042
0.0636042
0.0636042
0.0636042
0.0636042
0.0633803
0.0633803
0.0633803
0.0633803
0.0633803
0.0633803
0.0633803
0.0633803
0.0631579
0.0631579
0.0631579
0.0631579
0.0627178
0.0627178
0.0627178
0.0627178
0.0627178
0.0627178
0.0625
0.0625
0.0625
0.0625
0.0625
0.0625
0.0625
0.0625
0.0622837
0.0622837
0.0622837
0.0622837
0.0618557
0.0618557
0.0618557
0.0618557
0.0618557
0.0618557
0.0614334
0.0614334
0.0614334
0.0614334
0.0614334
0.0614334
0.0614334
0.0614334
0.0614334
0.0614334
0.0614334
0.0614334
0.0612245
0.0612245
0.0612245
0.0612245
0.0604027
0.0604027
0.0604027
0.0604027
0.0604027
0.0604027
0.0604027
0.0604027
0.0604027
0.0604027
0.0604027
0.0604027
0.0604027
0.0604027
0.0604027
0.0604027
0.0598007
0.0598007
0.0598007
0.0598007
0.0598007
0.0598007
0.0598007
0.0598007
0.0598007
0.0598007
0.0596026
0.0596026
0.0596026
0.0596026
0.0596026
0.0596026
0.0596026
0.0596026
0.0594059
0.0594059
0.0594059
0.0594059
0.0594059
0.0594059
0.0592105
0.0592105
0.0592105
0.0592105
0.0590164
0.0590164
0.0590164
0.0590164
0.0590164
0.0590164
0.0590164
0.0590164
0.0590164
0.0590164
0.0584416
0.0584416
0.0584416
0.0584416
0.0584416
0.0584416
0.0584416
0.0584416
0.0584416
0.0584416
0.0584416
0.0584416
0.0580645
0.0580645
0.0580645
0.0580645
0.0580645
0.0580645
0.0580645
0.0580645
0.0580645
0.0580645
0.0576923
0.0576923
0.0576923
0.0576923
0.0576923
0.0576923
0.0576923
0.0576923
0.057508
0.057508
0.057508
0.057508
0.0573248
0.0573248
0.0573248
0.0573248
0.0573248
0.0573248
0.0571429
0.0571429
0.0571429
0.0571429
0.056962
0.056962
0.056962
0.056962
0.0567823
0.0567823
0.0567823
0.0567823
0.0566038
0.0566038
0.0566038
0.0566038
0.0566038
0.0566038
0.0564263
0.0564263
0.0564263
0.0564263
0.0560748
0.0560748
0.0560748
0.0560748
0.0560748
0.0560748
0.0560748
0.0560748
0.0560748
0.0560748
0.0559006
0.0559006
0.0559006
0.0559006
0.0557276
0.0557276
0.0557276
0.0557276
0.0553846
0.0553846
0.0553846
0.0553846
0.0553846
0.0553846
0.0553846
0.0553846
0.0553846
0.0553846
0.0550459
0.0550459
0.0550459
0.0550459
0.0550459
0.0550459
0.0550459
0.0550459
0.0547112
0.0547112
0.0547112
0.0547112
0.0547112
0.0547112
0.0547112
0.0547112
0.0547112
0.0547112
0.0545455
0.0545455
0.0545455
0.0545455
0.0545455
0.0545455
0.0542169
0.0542169
0.0542169
0.0542169
0.0542169
0.0542169
0.0542169
0.0542169
0.0542169
0.0542169
0.0538922
0.0538922
0.0538922
0.0538922
0.0538922
0.0538922
0.0537313
0.0537313
0.0537313
0.0537313
0.0534125
0.0534125
0.0534125
0.0534125
0.0534125
0.0534125
0.0534125
0.0534125
0.0534125
0.0534125
0.0534125
0.0534125
0.0530973
0.0530973
0.0530973
0.0530973
0.0530973
0.0530973
0.0527859
0.0527859
0.0527859
0.0527859
0.0527859
0.0527859
0.0527859
0.0527859
0.0527859
0.0527859
0.0527859
0.0527859
0.0527859
0.0527859
0.0524781
0.0524781
0.0524781
0.0524781
0.0524781
0.0524781
0.0524781
0.0524781
0.0521739
0.0521739
0.0521739
0.0521739
0.0521739
0.0521739
0.0521739
0.0521739
0.0520231
0.0515759
0.0515759
0.0515759
0.0515759
0.0515759
0.0515759
0.0515759
0.0515759
0.0515759
0.0515759
0.0515759
0.0514286
0.0514286
0.0514286
0.0514286
0.0514286
0.0514286
0.0514286
0.0514286
0.0508475
0.0508475
0.0508475
0.0508475
0.0508475
0.0508475
0.0508475
0.0508475
0.0508475
0.0508475
0.0508475
0.0508475
0.0508475
0.0508475
0.0507042
0.0507042
0.0507042
0.0507042
0.0507042
0.0507042
0.0507042
0.0507042
0.0507042
0.0507042
0.0502793
0.0502793
0.0502793
0.0502793
0.0502793
0.0502793
0.0502793
0.0502793
0.0501393
0.0501393
0.0501393
0.0501393
0.0501393
0.0501393
0.0501393
0.0501393
0.0498615
0.0498615
0.0498615
0.0498615
0.0498615
0.0498615
0.0497238
0.0497238
0.0497238
0.0497238
0.0497238
0.0497238
0.0495868
0.0495868
0.0495868
0.0495868
0.0495868
0.0495868
0.0494505
0.0494505
0.0494505
0.0494505
0.0494505
0.0494505
0.0493151
0.0493151
0.0493151
0.0493151
0.0491803
0.0491803
0.0491803
0.0491803
0.0490463
0.0490463
0.0490463
0.0490463
0.048913
0.048913
0.048913
0.048913
0.048913
0.048913
0.0487805
0.0487805
0.0487805
0.0487805
0.0487805
0.0487805
0.0486486
0.0486486
0.0486486
0.0486486
0.0483871
0.0483871
0.0483871
0.0483871
0.0483871
0.0483871
0.0483871
0.0483871
0.0482574
0.0482574
0.0482574
0.0482574
0.0482574
0.0482574
0.0481283
0.0481283
0.0481283
0.0481283
0.0478723
0.0478723
0.0478723
0.0478723
0.0478723
0.0478723
0.0477454
0.0477454
0.0477454
0.0477454
0.047619
0.047619
0.047619
0.047619
0.047619
0.047619
0.0474934
0.0474934
0.0474934
0.0474934
0.0473684
0.0473684
0.0473684
0.0473684
0.0471204
0.0471204
0.0471204
0.0471204
0.0471204
0.0471204
0.0471204
0.0471204
0.0471204
0.0471204
0.0469974
0.0469974
0.0469974
0.0469974
0.046875
0.046875
0.046875
0.046875
0.0466321
0.0466321
0.0466321
0.0466321
0.0466321
0.0466321
0.0465116
0.0465116
0.0465116
0.0465116
0.0465116
0.0465116
0.0465116
0.0465116
0.0465116
0.0465116
0.0461538
0.0461538
0.0461538
0.0461538
0.0461538
0.0461538
0.0461538
0.0461538
0.0461538
0.0461538
0.0461538
0.0461538
0.0461538
0.0461538
0.0461538
0.0461538
0.0458015
0.0458015
0.0458015
0.0458015
0.0458015
0.0458015
0.0458015
0.0458015
0.0458015
0.0458015
0.0456853
0.0456853
0.0456853
0.0456853
0.0456853
0.0456853
0.0455696
0.0455696
0.0455696
0.0455696
0.0452261
0.0452261
0.0452261
0.0452261
0.0452261
0.0452261
0.0452261
0.0452261
0.0452261
0.0452261
0.0451128
0.0451128
0.0451128
0.0451128
0.0451128
0.0451128
0.0451128
0.0451128
0.0451128
0.0451128
0.044665
0.044665
0.044665
0.044665
0.044665
0.044665
0.044665
0.044665
0.044665
0.044665
0.044665
0.044665
0.0445545
0.0445545
0.0445545
0.0445545
0.0445545
0.0445545
0.0445545
0.0445545
0.0445545
0.0445545
0.0444444
0.0444444
0.0444444
0.0444444
0.044335
0.044335
0.044335
0.044335
0.044335
0.044335
0.044335
0.044335
0.044226
0.044226
0.044226
0.044226
0.0439024
0.0439024
0.0439024
0.0439024
0.0439024
0.0439024
0.0439024
0.0439024
0.0437956
0.0437956
0.0437956
0.0437956
0.0437956
0.0437956
0.0437956
0.0437956
0.0437956
0.0437956
0.0434783
0.0434783
0.0434783
0.0434783
0.0434783
0.0434783
0.0434783
0.0434783
0.0433735
0.0433735
0.0433735
0.0433735
0.0433735
0.0433735
0.0433735
0.0433735
0.0433735
0.0433735
0.0433735
0.0433735
0.0432692
0.0432692
0.0432692
0.0432692
0.0432692
0.0432692
0.0431655
0.0431655
0.0431655
0.0431655
0.0431655
0.0431655
0.0429594
0.0429594
0.0429594
0.0429594
0.0429594
0.0429594
0.0428571
0.0428571
0.0428571
0.0428571
0.0428571
0.0428571
0.0427553
0.0427553
0.0427553
0.0427553
0.0427553
0.0427553
0.042654
0.042654
0.042654
0.042654
0.0425532
0.0425532
0.0425532
0.0425532
0.0425532
0.0425532
0.0423529
0.0423529
0.0423529
0.0423529
0.0423529
0.0423529
0.0423529
0.0423529
0.0422535
0.0422535
0.0422535
0.0422535
0.0422535
0.0422535
0.0421546
0.0421546
0.0421546
0.0421546
0.041958
0.041958
0.041958
0.041958
0.041958
0.041958
0.041958
0.041958
0.0418605
0.0418605
0.0418605
0.0418605
0.0418605
0.0418605
0.0416667
0.0416667
0.0416667
0.0416667
0.0416667
0.0416667
0.0415704
0.0415704
0.0415704
0.0415704
0.0415704
0.0415704
0.0413793
0.0413793
0.0413793
0.0413793
0.0413793
0.0413793
0.0413793
0.0413793
0.0412844
0.0412844
0.0412844
0.0412844
0.0411899
0.0411899
0.0411899
0.0411899
0.0411899
0.0411899
0.0410023
0.0410023
0.0410023
0.0410023
0.0410023
0.0410023
0.0410023
0.0410023
0.0408163
0.0408163
0.0408163
0.0408163
0.0408163
0.0408163
0.040724
0.040724
0.040724
0.040724
0.040724
0.040724
0.040724
0.040724
0.0406321
0.0406321
0.0406321
0.0406321
0.0406321
0.0406321
0.0405405
0.0405405
0.0405405
0.0405405
0.0402685
0.0402685
0.0402685
0.0402685
0.0402685
0.0402685
0.0402685
0.0402685
0.0402685
0.0402685
0.0402685
0.0402685
0.0401786
0.0401786
0.0401786
0.0401786
0.0400891
0.0400891
0.0400891
0.0400891
0.039823
0.039823
0.039823
0.039823
0.039823
0.039823
0.039823
0.039823
0.039823
0.039823
0.039823
0.039823
0.039823
0.039823
0.0397351
0.0397351
0.0397351
0.0397351
0.0397351
0.0397351
0.0396476
0.0396476
0.0396476
0.0396476
0.0393873
0.0393873
0.0393873
0.0393873
0.0393873
0.0393873
0.0393873
0.0393873
0.0393873
0.0393873
0.0393013
0.0393013
0.0393013
0.0393013
0.0393013
0.0393013
0.0392157
0.0392157
0.0392157
0.0392157
0.0388769
0.0388769
0.0388769
0.0388769
0.0388769
0.0388769
0.0388769
0.0388769
0.0388769
0.0388769
0.0388769
0.0388769
0.0388769
0.0388769
0.0388769
0.0388769
0.0387931
0.0387931
0.0387931
0.0387931
0.0387097
0.0387097
0.0387097
0.0387097
0.0387097
0.0387097
0.0384615
0.0384615
0.0384615
0.0384615
0.0384615
0.0384615
0.0384615
0.0384615
0.0384615
0.0384615
0.0383795
0.0383795
0.0383795
0.0383795
0.0382979
0.0382979
0.0382979
0.0382979
0.0382979
0.0382979
0.0382979
0.0382979
0.0382166
0.0382166
0.0382166
0.0382166
0.0382166
0.0382166
0.038055
0.038055
0.038055
0.038055
0.038055
0.038055
0.038055
0.038055
0.0379747
0.0379747
0.0379747
0.0379747
0.0378947
0.0378947
0.0378947
0.0378947
0.0378151
0.0378151
0.0378151
0.0378151
0.0377358
0.0377358
0.0377358
0.0377358
0.0375783
0.0375783
0.0375783
0.0375783
0.0375783
0.0375783
0.0375783
0.0375783
0.0375
0.0375
0.0375
0.0375
0.037422
0.037422
0.037422
0.037422
0.037422
0.037422
0.0373444
0.0373444
0.0373444
0.0373444
0.0371901
0.0371901
0.0371901
0.0371901
0.0371901
0.0371901
0.0371134
0.0371134
0.0371134
0.0371134
0.0371134
0.0371134
0.037037
0.037037
0.037037
0.037037
0.036961
0.036961
0.036961
0.036961
0.0368852
0.0368852
0.0368852
0.0368852
0.0368852
0.0368852
0.0367347
0.0367347
0.0367347
0.0367347
0.0367347
0.0367347
0.0366599
0.0366599
0.0366599
0.0366599
0.0365854
0.0365854
0.0365854
0.0365854
0.0365112
0.0365112
0.0365112
0.0365112
0.0365112
0.0365112
0.0365112
0.0365112
0.0364372
0.0364372
0.0364372
0.0364372
0.0364372
0.0364372
0.0362903
0.0362903
0.0362903
0.0362903
0.0362903
0.0362903
0.0361446
0.0361446
0.0361446
0.0361446
0.0361446
0.0361446
0.0361446
0.0361446
0.0361446
0.0361446
0.0361446
0.0361446
0.036
0.036
0.036
0.036
0.036
0.036
0.036
0.036
0.036
0.036
0.0357853
0.0357853
0.0357853
0.0357853
0.0357853
0.0357853
0.0357853
0.0357853
0.0357853
0.0357853
0.0357143
0.0357143
0.0357143
0.0357143
0.0357143
0.0357143
0.0356436
0.0356436
0.0356436
0.0356436
0.0356436
0.0356436
0.035503
0.035503
0.035503
0.035503
0.035503
0.035503
0.035503
0.035503
0.0354331
0.0354331
0.0354331
0.0354331
0.0352941
0.0352941
0.0352941
0.0352941
0.0352941
0.0352941
0.0352941
0.0352941
0.0351562
0.0351562
0.0351562
0.0351562
0.0351562
0.0351562
0.0351562
0.0351562
0.0350877
0.0350877
0.0350877
0.0350877
0.0350195
0.0350195
0.0350195
0.0350195
0.0349515
0.0349515
0.0349515
0.0349515
0.0348837
0.0348837
0.0348837
0.0348837
0.0348162
0.0348162
0.0348162
0.0348162
0.0348162
0.0348162
0.034749
0.034749
0.034749
0.034749
0.0346154
0.0346154
0.0346154
0.0346154
0.0346154
0.0346154
0.0345489
0.0345489
0.0345489
0.0345489
0.0344828
0.0344828
0.0344828
0.0344828
0.0344828
0.0344828
0.0344828
0.0344828
0.0343511
0.0343511
0.0343511
0.0343511
0.0343511
0.0343511
0.0342205
0.0342205
0.0342205
0.0342205
0.0342205
0.0342205
0.0342205
0.0342205
0.0342205
0.0342205
0.0341556
0.0341556
0.0341556
0.0341556
0.0341556
0.0341556
0.0340265
0.0340265
0.0340265
0.0340265
0.0340265
0.0340265
0.0340265
0.0340265
0.0340265
0.0340265
0.0338346
0.0338346
0.0338346
0.0338346
0.0338346
0.0338346
0.0338346
0.0338346
0.0337711
0.0337711
0.0337711
0.0337711
0.0337711
0.0337711
0.0337079
0.0337079
0.0337079
0.0337079
0.0337079
0.0337079
0.0335821
0.0335821
0.0335821
0.0335821
0.0335821
0.0335821
0.0335196
0.0335196
0.0335196
0.0335196
0.0335196
0.0335196
0.0335196
0.0335196
0.0333952
0.0333952
0.0333952
0.0333952
0.0333952
0.0333952
0.0333952
0.0333952
0.0332103
0.0332103
0.0332103
0.0332103
0.0332103
0.0332103
0.0332103
0.0332103
0.0332103
0.0332103
0.0332103
0.0332103
0.0331492
0.0331492
0.0331492
0.0331492
0.0331492
0.0331492
0.032967
0.032967
0.032967
0.032967
0.032967
0.032967
0.032967
0.032967
0.0329068
0.0329068
0.0329068
0.0329068
0.0329068
0.0329068
0.0329068
0.0329068
0.0328467
0.0328467
0.0328467
0.0328467
0.0327869
0.0327869
0.0327869
0.0327869
0.0326679
0.0326679
0.0326679
0.0326679
0.0326679
0.0326679
0.0326679
0.0326679
0.0326679
0.0326679
0.0325497
0.0325497
0.0325497
0.0325497
0.0325497
0.0325497
0.0325497
0.0325497
0.0325497
0.0325497
0.0324324
0.0324324
0.0324324
0.0324324
0.0324324
0.0324324
0.0323741
0.0323741
0.0323741
0.0323741
0.0323741
0.0323741
0.032316
0.032316
0.032316
0.032316
0.032316
0.032316
0.0322581
0.0322581
0.0322581
0.0322581
0.0322581
0.0322581
0.0320285
0.0320285
0.0320285
0.0320285
0.0320285
0.0320285
0.0320285
0.0320285
0.0320285
0.0320285
0.0320285
0.0320285
0.0320285
0.0320285
0.0320285
0.0320285
0.0320285
0.0320285
0.0319149
0.0319149
0.0319149
0.0319149
0.0319149
0.0319149
0.0318584
0.0318584
0.0318584
0.0318584
0.0318021
0.0318021
0.0318021
0.0318021
0.0318021
0.0318021
0.031746
0.031746
0.031746
0.031746
0.0315789
0.0315789
0.0315789
0.0315789
0.0315789
0.0315789
0.0315789
0.0315789
0.0315236
0.0315236
0.0315236
0.0315236
0.0315236
0.0315236
0.0315236
0.0315236
0.0314685
0.0314685
0.0314685
0.0314685
0.0313589
0.0313589
0.0313589
0.0313589
0.0313589
0.0313589
0.0313043
0.0313043
0.0313043
0.0313043
0.03125
0.03125
0.03125
0.03125
0.03125
0.03125
0.0311958
0.0311958
0.0311958
0.0311958
0.0311958
0.0311958
0.0310345
0.0310345
0.0310345
0.0310345
0.0310345
0.0310345
0.0310345
0.0310345
0.0310345
0.0310345
0.0310345
0.0310345
0.0309278
0.0309278
0.0309278
0.0309278
0.0309278
0.0309278
0.0309278
0.0309278
0.0308748
0.0308748
0.0308748
0.0308748
0.0307692
0.0307692
0.0307692
0.0307692
0.0307692
0.0307692
0.0307692
0.0307692
0.0306644
0.0306644
0.0306644
0.0306644
0.0306644
0.0306644
0.0306644
0.0306644
0.0306122
0.0306122
0.0306122
0.0306122
0.0306122
0.0306122
0.0306122
0.0306122
0.0306122
0.0306122
0.0305603
0.0305603
0.0305603
0.0305603
0.0305085
0.0305085
0.0305085
0.0305085
0.0303541
0.0303541
0.0303541
0.0303541
0.0303541
0.0303541
0.0303541
0.0303541
0.0303541
0.0303541
0.0303541
0.0303541
0.030303
0.030303
0.030303
0.030303
0.0302521
0.0302521
0.0302521
0.0302521
0.0301003
0.0301003
0.0301003
0.0301003
0.0301003
0.0301003
0.0301003
0.0301003
0.0301003
0.0301003
0.0301003
0.0301003
0.0300501
0.0300501
0.0300501
0.0300501
0.03
0.03
0.03
0.03
0.0298013
0.0298013
0.0298013
0.0298013
0.0298013
0.0298013
0.0298013
0.0298013
0.0298013
0.0298013
0.0298013
0.0298013
0.0298013
0.0298013
0.0298013
0.0298013
0.0297521
0.0297521
0.0297521
0.0297521
0.029654
0.029654
0.029654
0.029654
0.029654
0.029654
0.0295567
0.0295567
0.0295567
0.0295567
0.0295567
0.0295567
0.0295567
0.0295567
0.0295567
0.0295567
0.0295567
0.0295567
0.0294599
0.0294599
0.0294599
0.0294599
0.0294599
0.0294599
0.0293638
0.0293638
0.0293638
0.0293638
0.0293638
0.0293638
0.029316
0.029316
0.029316
0.029316
0.029316
0.029316
0.029316
0.029316
0.029316
0.029316
0.0291262
0.0291262
0.0291262
0.0291262
0.0291262
0.0291262
0.0291262
0.0291262
0.0291262
0.0291262
0.0291262
0.0291262
0.0291262
0.0291262
0.0291262
0.0291262
0.0291262
0.0291262
0.0291262
0.0291262
0.0290323
0.0290323
0.0290323
0.0290323
0.0290323
0.0290323
0.0290323
0.0290323
0.0289389
0.0289389
0.0289389
0.0289389
0.0289389
0.0289389
0.0289389
0.0289389
0.0288925
0.0288925
0.0288925
0.0288925
0.0288925
0.0288925
0.0288925
0.0288925
0.0288462
0.0288462
0.0288462
0.0288462
0.0287081
0.0287081
0.0287081
0.0287081
0.0287081
0.0287081
0.0287081
0.0287081
0.0287081
0.0287081
0.0286624
0.0286624
0.0286624
0.0286624
0.0286624
0.0286624
0.0285714
0.0285714
0.0285714
0.0285714
0.0285714
0.0285714
0.028481
0.028481
0.028481
0.028481
0.028481
0.028481
0.028481
0.028481
0.028436
0.028436
0.028436
0.028436
0.028436
0.028436
0.0283912
0.0283912
0.0283912
0.0283912
0.0283912
0.0283912
0.0283912
0.0283912
0.0283019
0.0283019
0.0283019
0.0283019
0.0283019
0.0283019
0.0282575
0.0282575
0.0282575
0.0282575
0.028169
0.028169
0.028169
0.028169
0.028169
0.028169
0.028169
0.028169
0.028169
0.028169
0.0280811
0.0280811
0.0280811
0.0280811
0.0280811
0.0280811
0.0280374
0.0280374
0.0280374
0.0280374
0.0279503
0.0279503
0.0279503
0.0279503
0.0279503
0.0279503
0.0279503
0.0279503
0.0279503
0.0279503
0.0278207
0.0278207
0.0278207
0.0278207
0.0278207
0.0278207
0.0278207
0.0278207
0.0278207
0.0278207
0.0278207
0.0278207
0.0278207
0.0278207
0.0278207
0.0278207
0.027735
0.027735
0.027735
0.027735
0.027735
0.027735
0.027735
0.027735
0.0276074
0.0276074
0.0276074
0.0276074
0.0276074
0.0276074
0.0276074
0.0276074
0.0276074
0.0276074
0.0276074
0.0276074
0.0275229
0.0275229
0.0275229
0.0275229
0.0275229
0.0275229
0.0275229
0.0275229
0.0273973
0.0273973
0.0273973
0.0273973
0.0273973
0.0273973
0.0273973
0.0273973
0.0273973
0.0273973
0.0273556
0.0273556
0.0273556
0.0273556
0.0273141
0.0273141
0.0273141
0.0273141
0.0273141
0.0273141
0.0272315
0.0272315
0.0272315
0.0272315
0.0272315
0.0272315
0.0272315
0.0272315
0.0271903
0.0271903
0.0271903
0.0271903
0.0271493
0.0271493
0.0271493
0.0271493
0.0271493
0.0271493
0.027027
0.027027
0.027027
0.027027
0.027027
0.027027
0.027027
0.027027
0.027027
0.027027
0.0269865
0.0269865
0.0269865
0.0269865
0.0269461
0.0269461
0.0269461
0.0269461
0.0269461
0.0269461
0.0268256
0.0268256
0.0268256
0.0268256
0.0268256
0.0268256
0.0268256
0.0268256
0.0268256
0.0268256
0.0267857
0.0267857
0.0267857
0.0267857
0.0267062
0.0267062
0.0267062
0.0267062
0.0267062
0.0267062
0.0267062
0.0267062
0.0266272
0.0266272
0.0266272
0.0266272
0.0266272
0.0266272
0.0265879
0.0265879
0.0265879
0.0265879
0.0265879
0.0265879
0.0265487
0.0265487
0.0265487
0.0265487
0.0265487
0.0265487
0.0265096
0.0265096
0.0265096
0.0265096
0.0264706
0.0264706
0.0264706
0.0264706
0.0264706
0.0264706
0.0263158
0.0263158
0.0263158
0.0263158
0.0263158
0.0263158
0.0263158
0.0263158
0.0263158
0.0263158
0.0263158
0.0263158
0.0263158
0.0263158
0.0262774
0.0262774
0.0262774
0.0262774
0.0262774
0.0262774
0.0261628
0.0261628
0.0261628
0.0261628
0.0261628
0.0261628
0.0261628
0.0261628
0.0261248
0.0261248
0.0261248
0.0261248
0.0261248
0.0261248
0.026087
0.026087
0.026087
0.026087
0.026087
0.026087
0.0260492
0.0260492
0.0260492
0.0260492
0.0260492
0.0260492
0.025974
0.025974
0.025974
0.025974
0.025974
0.025974
0.0258993
0.0258993
0.0258993
0.0258993
0.0258993
0.0258993
0.0258993
0.0258993
0.0258621
0.0258621
0.0258621
0.0258621
0.0258621
0.0258621
0.025788
0.025788
0.025788
0.025788
0.025788
0.025788
0.0256776
0.0256776
0.0256776
0.0256776
0.0256776
0.0256776
0.0256776
0.0256776
0.0256776
0.0256776
0.0256776
0.0256776
0.0256776
0.0256776
0.0256046
0.0256046
0.0256046
0.0256046
0.0256046
0.0256046
0.0255319
0.0255319
0.0255319
0.0255319
0.0255319
0.0255319
0.0255319
0.0255319
0.0254597
0.0254597
0.0254597
0.0254597
0.0254597
0.0254597
0.0254597
0.0254597
0.0253879
0.0253879
0.0253879
0.0253879
0.0253879
0.0253879
0.0253879
0.0253879
0.0253879
0.0253879
0.0253521
0.0253521
0.0253521
0.0253521
0.0253165
0.0253165
0.0253165
0.0253165
0.0253165
0.0253165
0.0253165
0.0253165
0.0252101
0.0252101
0.0252101
0.0252101
0.0252101
0.0252101
0.0252101
0.0252101
0.0252101
0.0252101
0.0251397
0.0251397
0.0251397
0.0251397
0.0251397
0.0251397
0.0251397
0.0251397
0.0251397
0.0251397
0.0250348
0.0250348
0.0250348
0.0250348
0.0250348
0.0250348
0.0250348
0.0250348
0.0250348
0.0250348
0.0250348
0.0250348
0.0249307
0.0249307
0.0249307
0.0249307
0.0249307
0.0249307
0.0249307
0.0249307
0.0249307
0.0249307
0.0248963
0.0248963
0.0248963
0.0248963
0.0248963
0.0248963
0.0248963
0.0248963
0.0248276
0.0248276
0.0248276
0.0248276
0.0248276
0.0248276
0.0247593
0.0247593
0.0247593
0.0247593
0.0247593
0.0247593
0.0247253
0.0247253
0.0247253
0.0247253
0.0247253
0.0247253
0.0247253
0.0247253
0.0246914
0.0246914
0.0246914
0.0246914
0.0245902
0.0245902
0.0245902
0.0245902
0.0245902
0.0245902
0.0245902
0.0245902
0.0245566
0.0245566
0.0245566
0.0245566
0.0245566
0.0245566
0.0245566
0.0245566
0.0244898
0.0244898
0.0244898
0.0244898
0.0244898
0.0244898
0.0244233
0.0244233
0.0244233
0.0244233
0.0244233
0.0244233
0.0243902
0.0243902
0.0243902
0.0243902
0.0243902
0.0243902
0.0243902
0.0243902
0.0243572
0.0243572
0.0243572
0.0243572
0.0243572
0.0243572
0.0242915
0.0242915
0.0242915
0.0242915
0.0242915
0.0242915
0.0242588
0.0242588
0.0242588
0.0242588
0.0242588
0.0242588
0.0241935
0.0241935
0.0241935
0.0241935
0.0241935
0.0241935
0.0241935
0.0241935
0.0241287
0.0241287
0.0241287
0.0241287
0.0241287
0.0241287
0.0240964
0.0240964
0.0240964
0.0240964
0.0240964
0.0240964
0.024032
0.024032
0.024032
0.024032
0.024032
0.024032
0.024032
0.024032
0.023968
0.023968
0.023968
0.023968
0.023968
0.023968
0.0239362
0.0239362
0.0239362
0.0239362
0.0239362
0.0239362
0.0238411
0.0238411
0.0238411
0.0238411
0.0238411
0.0238411
0.0238411
0.0238411
0.0238411
0.0238411
0.0237781
0.0237781
0.0237781
0.0237781
0.0237781
0.0237781
0.0237781
0.0237781
0.0237781
0.0237781
0.0236842
0.0236842
0.0236842
0.0236842
0.0236842
0.0236842
0.0236842
0.0236842
0.0236531
0.0236531
0.0236531
0.0236531
0.0236531
0.0236531
0.023622
0.023622
0.023622
0.023622
0.023622
0.023622
0.0235294
0.0235294
0.0235294
0.0235294
0.0235294
0.0235294
0.0235294
0.0235294
0.0234987
0.0234987
0.0234987
0.0234987
0.0234681
0.0234681
0.0234681
0.0234681
0.0234681
0.0234681
0.0234681
0.0234681
0.0233766
0.0233766
0.0233766
0.0233766
0.0233766
0.0233766
0.0233766
0.0233766
0.0233463
0.0233463
0.0233463
0.0233463
0.0233463
0.0233463
0.0233463
0.0233463
0.0232859
0.0232859
0.0232859
0.0232859
0.0232859
0.0232859
0.0232558
0.0232558
0.0232558
0.0232558
0.0232558
0.0232558
0.0232558
0.0232558
0.0231959
0.0231959
0.0231959
0.0231959
0.0231959
0.0231959
0.0231065
0.0231065
0.0231065
0.0231065
0.0231065
0.0231065
0.0231065
0.0231065
0.0231065
0.0231065
0.0231065
0.0231065
0.0231065
0.0231065
0.0230474
0.0230474
0.0230474
0.0230474
0.0230474
0.0230474
0.0229592
0.0229592
0.0229592
0.0229592
0.0229592
0.0229592
0.0229592
0.0229592
0.0229592
0.0229592
0.0229592
0.0229592
0.0229592
0.0229592
0.0228717
0.0228717
0.0228717
0.0228717
0.0228717
0.0228717
0.0228717
0.0228717
0.0228426
0.0228426
0.0228426
0.0228426
0.0228137
0.0228137
0.0228137
0.0228137
0.0228137
0.0228137
0.0228137
0.0228137
0.0226986
0.0226986
0.0226986
0.0226986
0.0226986
0.0226986
0.0226986
0.0226986
0.0226986
0.0226986
0.0226986
0.0226986
0.02267
0.02267
0.02267
0.02267
0.02267
0.02267
0.02267
0.02267
0.0225847
0.0225847
0.0225847
0.0225847
0.0225847
0.0225847
0.0225847
0.0225847
0.0225564
0.0225564
0.0225564
0.0225564
0.0225564
0.0225564
0.0225
0.0225
0.0225
0.0225
0.0225
0.0225
0.0225
0.0225
0.0224159
0.0224159
0.0224159
0.0224159
0.0224159
0.0224159
0.0224159
0.0224159
0.0224159
0.0224159
0.0224159
0.0224159
0.0223325
0.0223325
0.0223325
0.0223325
0.0223325
0.0223325
0.0223325
0.0223325
0.0223325
0.0223325
0.0223325
0.0223325
0.0223325
0.0223325
0.0223325
0.0223325
0.0222497
0.0222497
0.0222497
0.0222497
0.0222497
0.0222497
0.0222497
0.0222497
0.0221948
0.0221948
0.0221948
0.0221948
0.0221948
0.0221948
0.0221948
0.0221948
0.0221948
0.0221948
0.0221948
0.0221948
0.022113
0.022113
0.022113
0.022113
0.022113
0.022113
0.022113
0.022113
0.022113
0.022113
0.0220588
0.0220588
0.0220588
0.0220588
0.0220588
0.0220588
0.0220588
0.0220588
0.0220588
0.0220588
0.0219512
0.0219512
0.0219512
0.0219512
0.0219512
0.0219512
0.0219512
0.0219512
0.0219512
0.0219512
0.0219512
0.0219512
0.0219245
0.0219245
0.0219245
0.0219245
0.0219245
0.0219245
0.0219245
0.0219245
0.0218447
0.0218447
0.0218447
0.0218447
0.0218447
0.0218447
0.0218447
0.0218447
0.0217918
0.0217918
0.0217918
0.0217918
0.0217918
0.0217918
0.0217918
0.0217918
0.0217918
0.0217918
0.0217918
0.0217918
0.0217918
0.0217918
0.0217129
0.0217129
0.0217129
0.0217129
0.0217129
0.0217129
0.0217129
0.0217129
0.0216867
0.0216867
0.0216867
0.0216867
0.0216606
0.0216606
0.0216606
0.0216606
0.0216606
0.0216606
0.0216606
0.0216606
0.0216606
0.0216606
0.0216346
0.0216346
0.0216346
0.0216346
0.0216346
0.0216346
0.0216346
0.0216346
0.0215569
0.0215569
0.0215569
0.0215569
0.0215569
0.0215569
0.0215569
0.0215569
0.0215311
0.0215311
0.0215311
0.0215311
0.0215311
0.0215311
0.0215311
0.0215311
0.0215311
0.0215311
0.0215054
0.0215054
0.0215054
0.0215054
0.0214541
0.0214541
0.0214541
0.0214541
0.0214541
0.0214541
0.0214031
0.0214031
0.0214031
0.0214031
0.0214031
0.0214031
0.0214031
0.0214031
0.0214031
0.0214031
0.0213777
0.0213777
0.0213777
0.0213777
0.0213523
0.0213523
0.0213523
0.0213523
0.0213523
0.0213523
0.021327
0.021327
0.021327
0.021327
0.0213018
0.0213018
0.0213018
0.0213018
0.0212515
0.0212515
0.0212515
0.0212515
0.0212515
0.0212515
0.0212264
0.0212264
0.0212264
0.0212264
0.0212264
0.0212264
0.0212264
0.0212264
0.0211765
0.0211765
0.0211765
0.0211765
0.0211765
0.0211765
0.0211765
0.0211765
0.0210773
0.0210773
0.0210773
0.0210773
0.0210773
0.0210773
0.0210773
0.0210773
0.0210773
0.0210773
0.0210773
0.0210773
0.0210773
0.0210773
0.0210526
0.0210526
0.0210526
0.0210526
0.0210526
0.0210526
0.0209546
0.0209546
0.0209546
0.0209546
0.0209546
0.0209546
0.0209546
0.0209546
0.0209546
0.0209546
0.0209546
0.0209546
0.0209302
0.0209302
0.0209302
0.0209302
0.0209059
0.0209059
0.0209059
0.0209059
0.0209059
0.0209059
0.0209059
0.0209059
0.0209059
0.0209059
0.0209059
0.0209059
0.0209059
0.0209059
0.0208092
0.0208092
0.0208092
0.0208092
0.0208092
0.0208092
0.0208092
0.0208092
0.0208092
0.0208092
0.0208092
0.0208092
0.0208092
0.0208092
0.0207612
0.0207612
0.0207612
0.0207612
0.0207612
0.0207612
0.0207612
0.0207612
0.0207612
0.0207612
0.0207612
0.0207612
0.0207373
0.0207373
0.0207373
0.0207373
0.0206659
0.0206659
0.0206659
0.0206659
0.0206659
0.0206659
0.0206659
0.0206659
0.0206422
0.0206422
0.0206422
0.0206422
0.0206186
0.0206186
0.0206186
0.0206186
0.0206186
0.0206186
0.020595
0.020595
0.020595
0.020595
0.0205479
0.0205479
0.0205479
0.0205479
0.0205479
0.0205479
0.0205011
0.0205011
0.0205011
0.0205011
0.0205011
0.0205011
0.0204778
0.0204778
0.0204778
0.0204778
0.0204778
0.0204778
0.0204545
0.0204545
0.0204545
0.0204545
0.0204313
0.0204313
0.0204313
0.0204313
0.0203851
0.0203851
0.0203851
0.0203851
0.0203851
0.0203851
0.020362
0.020362
0.020362
0.020362
0.020362
0.020362
0.020339
0.020339
0.020339
0.020339
0.020316
0.020316
0.020316
0.020316
0.0202475
0.0202475
0.0202475
0.0202475
0.0202475
0.0202475
0.0202475
0.0202475
0.0202247
0.0202247
0.0202247
0.0202247
0.0202247
0.0202247
0.020202
0.020202
0.020202
0.0201794
0.0201794
0.0201794
0.0201794
0.0201794
0.0201794
0.0201794
0.0201568
0.0201568
0.0201568
0.0201568
0.0201568
0.0201568
0.0201568
0.0201568
0.0200893
0.0200893
0.0200893
0.0200893
0.0200893
0.0200893
0.0200893
0.0200893
0.0200893
0.0200893
0.0200445
0.0200445
0.0200445
0.0200445
0.0200445
0.0200445
0.0200222
0.0200222
0.0200222
0.0200222
0.0200222
0.0200222
0.02
0.02
0.02
0.02
0.0199557
0.0199557
0.0199557
0.0199557
0.0199557
0.0199557
0.0199557
0.0199557
0.0198895
0.0198895
0.0198895
0.0198895
0.0198895
0.0198895
0.0198895
0.0198895
0.0198895
0.0198895
0.0198895
0.0198895
0.0198675
0.0198675
0.0198675
0.0198675
0.0198238
0.0198238
0.0198238
0.0198238
0.0198238
0.0198238
0.0197585
0.0197585
0.0197585
0.0197585
0.0197585
0.0197585
0.0197585
0.0197585
0.0197585
0.0197585
0.0197585
0.0197585
0.0197368
0.0197368
0.0197368
0.0197368
0.0197368
0.0197368
0.0197368
0.0197368
0.0196507
0.0196507
0.0196507
0.0196507
0.0196507
0.0196507
0.0196507
0.0196507
0.0196507
0.0196507
0.0196292
0.0196292
0.0196292
0.0196292
0.0196292
0.0196292
0.0196292
0.0196292
0.0196292
0.0196292
0.0196078
0.0196078
0.0196078
0.0196078
0.019544
0.019544
0.019544
0.019544
0.019544
0.019544
0.019544
0.019544
0.0195016
0.0195016
0.0195016
0.0195016
0.0195016
0.0195016
0.0195016
0.0195016
0.0195016
0.0195016
0.0195016
0.0195016
0.0194805
0.0194805
0.0194805
0.0194805
0.0194805
0.0194805
0.0194805
0.0194805
0.0194805
0.0194805
0.0194595
0.0194595
0.0194595
0.0194595
0.0193757
0.0193757
0.0193757
0.0193757
0.0193757
0.0193757
0.0193757
0.0193757
0.0193757
0.0193757
0.0193757
0.0193757
0.0193757
0.0193757
0.0193548
0.0193548
0.0193548
0.0193548
0.019334
0.019334
0.019334
0.019334
0.019334
0.019334
0.0193133
0.0193133
0.0193133
0.0193133
0.0192513
0.0192513
0.0192513
0.0192513
0.0192513
0.0192513
0.0192513
0.0192513
0.0192513
0.0192513
0.0192102
0.0192102
0.0192102
0.0192102
0.0192102
0.0192102
0.0192102
0.0192102
0.0191898
0.0191898
0.0191898
0.0191898
0.0191489
0.0191489
0.0191489
0.0191489
0.0191489
0.0191489
0.0191489
0.0191489
0.0191489
0.0191489
0.0191489
0.0191489
0.0191083
0.0191083
0.0191083
0.0191083
0.0191083
0.0191083
0.0191083
0.0191083
0.0191083
0.0191083
0.0191083
0.0191083
0.0190476
0.0190476
0.0190476
0.0190476
0.0190476
0.0190476
0.0190476
0.0190476
0.0190074
0.0190074
0.0190074
0.0190074
0.0190074
0.0190074
0.0190074
0.0190074
0.0190074
0.0190074
0.0189873
0.0189873
0.0189873
0.0189873
0.0189474
0.0189474
0.0189474
0.0189474
0.0189474
0.0189474
0.0189474
0.0189474
0.0189274
0.0189274
0.0189274
0.0189274
0.0189274
0.0189274
0.0188877
0.0188877
0.0188877
0.0188877
0.0188877
0.0188877
0.0188877
0.0188877
0.0188877
0.0188877
0.0188877
0.0188877
0.0188679
0.0188679
0.0188679
0.0188679
0.0188679
0.0188679
0.0188679
0.0188679
0.0188679
0.0188679
0.0188285
0.0188285
0.0188285
0.0188285
0.0188285
0.0188285
0.0188088
0.0188088
0.0188088
0.0188088
0.01875
0.01875
0.01875
0.01875
0.01875
0.01875
0.01875
0.01875
0.01875
0.01875
0.01875
0.01875
0.018711
0.018711
0.018711
0.018711
0.018711
0.018711
0.0186916
0.0186916
0.0186916
0.0186916
0.0186916
0.0186916
0.0186528
0.0186528
0.0186528
0.0186528
0.0186528
0.0186528
0.0186335
0.0186335
0.0186335
0.0186335
0.0186143
0.0186143
0.0186143
0.0186143
0.018595
0.018595
0.018595
0.018595
0.0185759
0.0185759
0.0185759
0.0185759
0.0185567
0.0185567
0.0185567
0.0185567
0.0185376
0.0185376
0.0185376
0.0185376
0.0184995
0.0184995
0.0184995
0.0184995
0.0184995
0.0184995
0.0184995
0.0184995
0.0184805
0.0184805
0.0184805
0.0184805
0.0184615
0.0184615
0.0184615
0.0184615
0.0184426
0.0184426
0.0184426
0.0184426
0.0184049
0.0184049
0.0184049
0.0184049
0.0184049
0.0184049
0.0184049
0.0184049
0.0183673
0.0183673
0.0183673
0.0183673
0.0183673
0.0183673
0.0183673
0.0183673
0.0183673
0.0183673
0.0183673
0.0183673
0.0183299
0.0183299
0.0183299
0.0183299
0.0183299
0.0183299
0.0183299
0.0183299
0.0183113
0.0183113
0.0183113
0.0183113
0.0182741
0.0182741
0.0182741
0.0182741
0.0182741
0.0182741
0.0182741
0.0182741
0.0182371
0.0182371
0.0182371
0.0182371
0.0182371
0.0182371
0.0182186
0.0182186
0.0182186
0.0182186
0.0182002
0.0182002
0.0182002
0.0182002
0.0182002
0.0182002
0.0181635
0.0181635
0.0181635
0.0181635
0.0181635
0.0181635
0.0181452
0.0181452
0.0181452
0.0181452
0.0181269
0.0181269
0.0181269
0.0181269
0.0181087
0.0181087
0.0181087
0.0181087
0.0181087
0.0181087
0.0180723
0.0180723
0.0180723
0.0180723
0.0180723
0.0180723
0.0180542
0.0180542
0.0180542
0.0180542
0.018018
0.018018
0.018018
0.018018
0.018018
0.018018
0.018
0.018
0.018
0.018
0.018
0.018
0.017982
0.017982
0.017982
0.017982
0.017982
0.017982
0.0179283
0.0179283
0.0179283
0.0179283
0.0179283
0.0179283
0.0179283
0.0179283
0.0178926
0.0178926
0.0178926
0.0178926
0.0178926
0.0178926
0.0178926
0.0178926
0.0178749
0.0178749
0.0178749
0.0178749
0.0178749
0.0178749
0.0178218
0.0178218
0.0178218
0.0178218
0.0178218
0.0178218
0.0178218
0.0178218
0.0178218
0.0178218
0.0178218
0.0178218
0.0177866
0.0177866
0.0177866
0.0177866
0.0177866
0.0177866
0.0177866
0.0177866
0.0177866
0.0177866
0.017769
0.017769
0.017769
0.017769
0.017769
0.017769
0.017769
0.017769
0.0177515
0.0177515
0.0177515
0.0177515
0.0177515
0.0177515
0.0177515
0.0177515
0.0177515
0.0177515
0.0177165
0.0177165
0.0177165
0.0177165
0.0177165
0.0177165
0.0176817
0.0176817
0.0176817
0.0176817
0.0176817
0.0176817
0.0176471
0.0176471
0.0176471
0.0176471
0.0176471
0.0176471
0.0176471
0.0176471
0.0176471
0.0176471
0.0176298
0.0176298
0.0176298
0.0176298
0.0175953
0.0175953
0.0175953
0.0175953
0.0175953
0.0175953
0.0175781
0.0175781
0.0175781
0.0175781
0.0175439
0.0175439
0.0175439
0.0175439
0.0175439
0.0175439
0.0175439
0.0175439
0.0175268
0.0175268
0.0175268
0.0175268
0.0174927
0.0174927
0.0174927
0.0174927
0.0174927
0.0174927
0.0174757
0.0174757
0.0174757
0.0174757
0.0174757
0.0174757
0.0174419
0.0174419
0.0174419
0.0174419
0.0174419
0.0174419
0.0174419
0.0174419
0.0174419
0.0174419
0.017425
0.017425
0.017425
0.017425
0.0173745
0.0173745
0.0173745
0.0173745
0.0173745
0.0173745
0.0173745
0.0173745
0.0173745
0.0173745
0.0173745
0.0173745
0.0173745
0.0173745
0.0173578
0.0173578
0.0173578
0.0173578
0.0173578
0.0173578
0.0173578
0.0173578
0.0173578
0.0173578
0.0173244
0.0173244
0.0173244
0.0173244
0.0173244
0.0173244
0.0172745
0.0172745
0.0172745
0.0172745
0.0172745
0.0172745
0.0172745
0.0172745
0.0172579
0.0172579
0.0172579
0.0172579
0.0172579
0.0172579
0.0172249
0.0172249
0.0172249
0.0172249
0.0172249
0.0172249
0.017192
0.017192
0.017192
0.017192
0.017192
0.017192
0.017192
0.017192
0.017192
0.017192
0.0171592
0.0171592
0.0171592
0.0171592
0.0171592
0.0171592
0.0171265
0.0171265
0.0171265
0.0171265
0.0171265
0.0171265
0.0171265
0.0171265
0.0171103
0.0171103
0.0171103
0.0171103
0.017094
0.017094
0.017094
0.017094
0.0170616
0.0170616
0.0170616
0.0170616
0.0170616
0.0170616
0.0170293
0.0170293
0.0170293
0.0170293
0.0170293
0.0170293
0.0170293
0.0170293
0.0170132
0.0170132
0.0170132
0.0170132
0.0170132
0.0170132
0.0170132
0.0170132
0.0169972
0.0169972
0.0169972
0.0169972
0.0169332
0.0169332
0.0169332
0.0169332
0.0169332
0.0169332
0.0169332
0.0169332
0.0169332
0.0169332
0.0169332
0.0169332
0.0169173
0.0169173
0.0169173
0.0169173
0.0169173
0.0169173
0.0169014
0.0169014
0.0169014
0.0169014
0.0168856
0.0168856
0.0168856
0.0168856
0.0168697
0.0168697
0.0168697
0.0168697
0.0168224
0.0168224
0.0168224
0.0168224
0.0168224
0.0168224
0.0168224
0.0168224
0.0168224
0.0168224
0.0168067
0.0168067
0.0168067
0.0168067
0.016791
0.016791
0.016791
0.016791
0.0167754
0.0167754
0.0167754
0.0167754
0.0167754
0.0167754
0.0167442
0.0167442
0.0167442
0.0167442
0.0167442
0.0167442
0.0167442
0.0167442
0.0167442
0.0167442
0.0167131
0.0167131
0.0167131
0.0167131
0.0167131
0.0167131
0.0166976
0.0166512
0.0166512
0.0166512
0.0166512
0.0166512
0.0166512
0.0166512
0.0166512
0.0166512
0.0166359
0.0166359
0.0166359
0.0166359
0.0166359
0.0166359
0.0165746
0.0165746
0.0165746
0.0165746
0.0165746
0.0165746
0.0165746
0.0165746
0.0165746
0.0165746
0.0165746
0.0165746
0.0165746
0.0165746
0.0165746
0.0165746
0.0165746
0.0165746
0.0165593
0.0165593
0.0165593
0.0165593
0.0165441
0.0165441
0.0165441
0.0165441
0.0165138
0.0165138
0.0165138
0.0165138
0.0165138
0.0165138
0.0165138
0.0165138
0.0165138
0.0165138
0.0164986
0.0164986
0.0164986
0.0164986
0.0164986
0.0164986
0.0164835
0.0164835
0.0164835
0.0164835
0.0164534
0.0164534
0.0164534
0.0164534
0.0164534
0.0164534
0.0164384
0.0164384
0.0164384
0.0164384
0.0164234
0.0164234
0.0164234
0.0164234
0.0164084
0.0164084
0.0164084
0.0164084
0.0164084
0.0164084
0.0163636
0.0163636
0.0163636
0.0163636
0.0163636
0.0163636
0.0163488
0.0163488
0.0163488
0.0163488
0.0163339
0.0163339
0.0163339
0.0163339
0.0163191
0.0163191
0.0163191
0.0163191
0.0163191
0.0163191
0.0163191
0.0163191
0.0163191
0.0163191
0.0162749
0.0162749
0.0162749
0.0162749
0.0162749
0.0162749
0.0162749
0.0162749
0.0162602
0.0162602
0.0162602
0.0162602
0.0162602
0.0162602
0.0162602
0.0162602
0.0162602
0.0162162
0.0162162
0.0162162
0.0162162
0.0162162
0.0162162
0.0162162
0.0162162
0.0162162
0.0162162
0.0162162
0.0162162
0.0162162
0.0162162
0.0162162
0.0162162
0.0162162
0.0162162
0.0162162
0.0162162
0.0162162
0.0162162
0.0162162
0.0162162
0.0162162
0.0162162
0.0162162
0.0162162
0.0162162
0.0161725
0.016129
0.016129
0.016129
0.016129
0.016129
0.016129
0.016129
0.016129
0.016129
0.0161146
0.0161146
0.0161146
0.0161146
0.0161146
0.0161146
0.0161146
0.0161146
0.0161146
0.0161146
0.0160858
0.0160858
0.0160858
0.0160858
0.0160858
0.0160858
0.0160714
0.0160571
0.0160571
0.0160571
0.0160285
0.0160285
0.0160285
0.0160285
0.0160285
0.0160285
0.0160285
0.0160285
0.0159858
0.0159858
0.0159858
0.0159858
0.0159858
0.0159858
0.0159858
0.0159858
0.0159858
0.0159858
0.0159716
0.0159716
0.0159716
0.0159716
0.0159574
0.0159574
0.0159574
0.0159574
0.0159574
0.0159574
0.0159433
0.0159433
0.0159433
0.0159433
0.0159151
0.0159011
0.0159011
0.0159011
0.0159011
0.0159011
0.015859
0.015859
0.015859
0.015859
0.015859
0.015859
0.015859
0.015859
0.015859
0.015859
0.0158451
0.0158451
0.0158451
0.0158451
0.0158451
0.0158451
0.0158311
0.0158311
0.0158311
0.0158311
0.0158033
0.0158033
0.0158033
0.0158033
0.0158033
0.0158033
0.0157756
0.0157756
0.0157756
0.0157756
0.0157756
0.0157756
0.0157756
0.0157756
0.0157756
0.0157756
0.0157756
0.0157756
0.0157343
0.0157343
0.0157343
0.0157343
0.0157343
0.0157343
0.0157343
0.0157343
0.0157343
0.0157343
0.0157343
0.0157343
0.0157343
0.0157343
0.0157343
0.0157343
0.0156931
0.0156931
0.0156931
0.0156931
0.0156931
0.0156931
0.0156658
0.0156658
0.0156658
0.0156658
0.0156658
0.015625
0.015625
0.015625
0.015625
0.015625
0.015625
0.015625
0.0156114
0.0156114
0.0155979
0.0155979
0.0155979
0.0155979
0.0155709
0.0155709
0.0155709
0.0155709
0.0155709
0.0155709
0.0155709
0.0155709
0.015544
0.015544
0.015544
0.015544
0.015544
0.015544
0.015544
0.015544
0.0155306
0.0155306
0.0155306
0.0155306
0.0155306
0.0155306
0.0155172
0.0155172
0.0155172
0.0155172
0.0154772
0.0154772
0.0154772
0.0154772
0.0154772
0.0154772
0.0154772
0.0154772
0.0154639
0.0154639
0.0154639
0.0154639
0.0154639
0.0154639
0.0154639
0.0154639
0.0154506
0.0154506
0.0154506
0.0154506
0.0154242
0.0154242
0.0154242
0.0154242
0.0154242
0.0154242
0.0154242
0.0154242
0.0153978
0.0153978
0.0153978
0.0153978
0.0153978
0.0153978
0.0153715
0.0153715
0.0153715
0.0153715
0.0153715
0.0153715
0.0153584
0.0153584
0.0153584
0.0153584
0.0153584
0.0153584
0.0153191
0.0153191
0.0153191
0.0153191
0.0153191
0.0153191
0.0153191
0.0153191
0.0153191
0.0153191
0.0153061
0.0153061
0.0153061
0.0153061
0.0152801
0.0152801
0.0152801
0.0152801
0.0152801
0.0152801
0.0152801
0.0152801
0.0152801
0.0152801
0.0152801
0.0152801
0.0152801
0.0152801
0.0152801
0.0152801
0.0152801
0.0152801
0.0152413
0.0152413
0.0152413
0.0152413
0.0152413
0.0152413
0.0152413
0.0152413
0.0152156
0.0152156
0.0152156
0.0152156
0.0152156
0.0152156
0.0152156
0.0152156
0.0152156
0.0152156
0.0152027
0.0152027
0.0152027
0.0152027
0.0151899
0.0151899
0.0151899
0.0151899
0.0151899
0.0151899
0.0151771
0.0151771
0.0151771
0.0151771
0.0151771
0.0151771
0.0151771
0.0151771
0.0151643
0.0151643
0.0151643
0.0151643
0.0151643
0.0151643
0.0151388
0.0151388
0.0151388
0.0151388
0.0151388
0.0151388
0.0151388
0.0151388
0.0151388
0.0151388
0.0151388
0.0151388
0.0151134
0.0151134
0.0151134
0.0151134
0.0151134
0.0151134
0.0150754
0.0150754
0.0150754
0.0150754
0.0150754
0.0150754
0.0150754
0.0150754
0.0150628
0.0150628
0.0150628
0.0150628
0.0150628
0.0150628
0.0150628
0.0150628
0.0150376
0.0150376
0.0150376
0.0150376
0.0150376
0.0150376
0.015025
0.015025
0.015025
0.015025
0.0150125
0.0150125
0.0150125
0.0150125
0.015
0.015
0.015
0.015
0.0149875
0.0149875
0.0149875
0.0149875
0.014975
0.014975
0.014975
0.014975
0.0149626
0.0149626
0.0149626
0.0149626
0.0149502
0.0149502
0.0149502
0.0149502
0.0149502
0.0149502
0.0149502
0.0149502
0.0149502
0.0149502
0.0149502
0.0149502
0.0149502
0.0149502
0.0149007
0.0149007
0.0149007
0.0149007
0.0149007
0.0149007
0.014876
0.014876
0.014876
0.014876
0.014876
0.014876
0.014876
0.014876
0.0148515
0.0148515
0.0148515
0.0148515
0.0148515
0.0148515
0.0148515
0.0148515
0.014827
0.014827
0.014827
0.014827
0.014827
0.014827
0.0148026
0.0148026
0.0148026
0.0148026
0.0148026
0.0148026
0.0148026
0.0148026
0.0147662
0.0147662
0.0147662
0.0147662
0.0147662
0.0147662
0.0147662
0.0147662
0.0147662
0.0147662
0.0147541
0.0147541
0.0147541
0.0147541
0.0147541
0.0147541
0.01473
0.01473
0.01473
0.01473
0.01473
0.01473
0.0147179
0.0147179
0.0147179
0.0147179
0.0147179
0.0147179
0.0146699
0.0146699
0.0146699
0.0146699
0.0146699
0.0146699
0.0146699
0.0146699
0.0146699
0.0146699
0.0146699
0.0146699
0.014658
0.014658
0.014658
0.014658
0.014658
0.014658
0.014658
0.014658
0.0146341
0.0146341
0.0146341
0.0146341
0.0146104
0.0146104
0.0146104
0.0146104
0.0146104
0.0146104
0.0145985
0.0145985
0.0145985
0.0145985
0.0145867
0.0145867
0.0145867
0.0145867
0.0145867
0.0145867
0.0145749
0.0145749
0.0145749
0.0145749
0.0145631
0.0145631
0.0145631
0.0145631
0.0145278
0.0145278
0.0145278
0.0145278
0.0145278
0.0145278
0.0145278
0.0145278
0.0145278
0.0145278
0.0145278
0.0145278
0.0145278
0.0144811
0.0144811
0.0144811
0.0144811
0.0144811
0.0144811
0.0144811
0.0144811
0.0144811
0.0144811
0.0144811
0.0144811
0.0144811
0.0144811
0.0144811
0.0144578
0.0144231
0.0144231
0.0144231
0.0144231
0.0144231
0.0144231
0.0144231
0.0144231
0.0144231
0.0144
0.0144
0.0144
0.0144
0.0144
0.0144
0.0144
0.0144
0.0144
0.0144
0.014377
0.014377
0.014377
0.014377
0.014377
0.014377
0.014377
0.014377
0.014377
0.014377
0.0143655
0.0143655
0.0143655
0.0143655
0.0143655
0.0143655
0.0143426
0.0143426
0.0143426
0.0143426
0.0143426
0.0143426
0.0143198
0.0143198
0.0143198
0.0143198
0.0143198
0.0143198
0.0143084
0.0143084
0.0143084
0.0143084
0.0143084
0.0143084
0.0143084
0.0143084
0.0143084
0.0143084
0.0143084
0.0143084
0.0142631
0.0142631
0.0142631
0.0142631
0.0142631
0.0142631
0.0142631
0.0142631
0.0142631
0.0142631
0.0142631
0.0142631
0.0142631
0.0142631
0.0142631
0.0142631
0.0142518
0.0142518
0.0142518
0.0142518
0.0142518
0.0142518
0.0142068
0.0142068
0.0142068
0.0142068
0.0141956
0.0141956
0.0141956
0.0141956
0.0141956
0.0141956
0.0141956
0.0141956
0.0141956
0.0141956
0.0141732
0.0141732
0.0141732
0.0141732
0.0141732
0.0141732
0.0141732
0.0141732
0.0141732
0.0141732
0.0141509
0.0141509
0.0141509
0.0141509
0.0141509
0.0141509
0.0141398
0.0141398
0.0141398
0.0141398
0.0141398
0.0141398
0.0141398
0.0141398
0.0141176
0.0141176
0.0141176
0.0141176
0.0141176
0.0141176
0.0140955
0.0140955
0.0140955
0.0140955
0.0140955
0.0140955
0.0140955
0.0140955
0.0140955
0.0140955
0.0140625
0.0140625
0.0140625
0.0140625
0.0140625
0.0140625
0.0140625
0.0140625
0.0140625
0.0140625
0.0140625
0.0140625
0.0140515
0.0140515
0.0140515
0.0140515
0.0140515
0.0140515
0.0140296
0.0140296
0.0140296
0.0140296
0.0140296
0.0140296
0.013986
0.013986
0.013986
0.013986
0.013986
0.013986
0.013986
0.013986
0.013986
0.013986
0.013986
0.013986
0.013986
0.013986
0.0139643
0.0139643
0.0139643
0.0139643
0.0139643
0.0139643
0.0139427
0.0139427
0.0139427
0.0139427
0.0139427
0.0139427
0.0139427
0.0139427
0.0139427
0.0139427
0.0139319
0.0139319
0.0138996
0.0138996
0.0138996
0.0138996
0.0138996
0.0138996
0.0138996
0.0138996
0.0138675
0.0138675
0.0138675
0.0138675
0.0138675
0.0138675
0.0138675
0.0138675
0.0138675
0.0138675
0.0138675
0.0138675
0.0138355
0.0138355
0.0138355
0.0138355
0.0138355
0.0138355
0.0138355
0.0138355
0.0138355
0.0138355
0.0138355
0.0138355
0.0138037
0.0138037
0.0138037
0.0138037
0.0138037
0.0138037
0.0138037
0.0138037
0.0138037
0.0138037
0.0137931
0.0137931
0.0137931
0.0137931
0.0137825
0.0137825
0.0137825
0.0137825
0.013772
0.013772
0.013772
0.013772
0.0137615
0.0137615
0.0137615
0.0137615
0.0137615
0.0137615
0.0137615
0.0137615
0.0137615
0.0137615
0.013751
0.013751
0.013751
0.013751
0.013751
0.013751
0.0137195
0.0137195
0.0137195
0.0137195
0.0137195
0.0137195
0.0137195
0.0137195
0.0137091
0.0137091
0.0137091
0.0137091
0.0136986
0.0136986
0.0136986
0.0136986
0.0136882
0.0136882
0.0136882
0.0136882
0.0136882
0.0136882
0.0136778
0.0136778
0.0136778
0.0136778
0.0136571
0.0136571
0.0136571
0.0136571
0.0136571
0.0136571
0.0136364
0.0136364
0.0136364
0.0136364
0.0136364
0.0136364
0.0136364
0.0136364
0.0136364
0.0136364
0.013626
0.013626
0.013626
0.013626
0.013626
0.013626
0.013626
0.013626
0.013626
0.013626
0.0136157
0.0136157
0.0136157
0.0136157
0.0136157
0.0136157
0.0136054
0.0136054
0.0135747
0.0135747
0.0135747
0.0135747
0.0135747
0.0135747
0.0135747
0.0135747
0.0135644
0.0135644
0.0135644
0.0135644
0.0135542
0.0135542
0.0135542
0.0135542
0.0135542
0.0135542
0.013544
0.013544
0.013544
0.013544
0.013544
0.013544
0.0135135
0.0135135
0.0135135
0.0135135
0.0135135
0.0135135
0.0135135
0.0135135
0.0134933
0.0134731
0.0134731
0.0134731
0.0134731
0.0134731
0.0134731
0.0134731
0.0134731
0.0134731
0.0134731
0.0134731
0.0134328
0.0134328
0.0134328
0.0134328
0.0134228
0.0134228
0.0134228
0.0134228
0.0134228
0.0134228
0.0134128
0.0134128
0.0134128
0.0134128
0.0134028
0.0134028
0.0134028
0.0134028
0.0134028
0.0134028
0.0133929
0.0133929
0.0133929
0.0133929
0.013363
0.013363
0.013363
0.013363
0.013363
0.013363
0.013363
0.013363
0.0133432
0.0133432
0.0133432
0.0133432
0.0133432
0.0133432
0.0133432
0.0133432
0.0133432
0.0133432
0.0133432
0.0133432
0.0133333
0.0133333
0.0133333
0.0133333
0.0133235
0.0133235
0.0133235
0.0133235
0.0133136
0.0133136
0.0133136
0.0133136
0.0133038
0.0133038
0.0133038
0.0133038
0.0133038
0.0133038
0.0132841
0.0132841
0.0132841
0.0132841
0.0132841
0.0132841
0.0132841
0.0132841
0.0132743
0.0132743
0.0132743
0.0132743
0.0132548
0.0132548
0.0132548
0.0132548
0.0132548
0.0132548
0.0132548
0.0132548
0.013245
0.013245
0.013245
0.013245
0.013245
0.013245
0.0132256
0.0132256
0.0132256
0.0132256
0.0132256
0.0132256
0.0132062
0.0132062
0.0132062
0.0132062
0.0132062
0.0132062
0.0132062
0.0132062
0.0131965
0.0131965
0.0131965
0.0131965
0.0131965
0.0131965
0.0131772
0.0131772
0.0131772
0.0131772
0.0131772
0.0131772
0.0131483
0.0131483
0.0131483
0.0131483
0.0131483
0.0131483
0.0131483
0.0131483
0.0131483
0.0131483
0.0131387
0.0131387
0.0131387
0.0131387
0.0131387
0.0131387
0.0131195
0.0131004
0.0131004
0.0131004
0.0131004
0.0131004
0.0131004
0.0131004
0.0130719
0.0130719
0.0130719
0.0130719
0.0130719
0.0130719
0.0130719
0.0130719
0.0130719
0.0130719
0.0130624
0.0130624
0.0130624
0.0130624
0.0130624
0.0130624
0.0130624
0.0130624
0.0130624
0.0130624
0.0130529
0.0130529
0.0130529
0.0130529
0.0130529
0.0130529
0.0130152
0.0130152
0.0130152
0.0130152
0.0130152
0.0130152
0.0130152
0.0130152
0.0130152
0.0130152
0.0130058
0.0130058
0.0130058
0.0130058
0.0130058
0.0130058
0.0130058
0.0130058
0.0130058
0.0130058
0.012987
0.012987
0.012987
0.012987
0.012987
0.012987
0.012987
0.012987
0.012987
0.012987
0.012959
0.012959
0.012959
0.012959
0.012959
0.012959
0.012959
0.012959
0.012959
0.012959
0.012959
0.012959
0.0129218
0.0129218
0.0129218
0.0129218
0.0129218
0.0129218
0.0129218
0.0129218
0.0129218
0.0129218
0.0129218
0.0129218
0.0129125
0.0129125
0.0129032
0.0129032
0.0129032
0.0129032
0.0129032
0.0129032
0.0129032
0.012894
0.012894
0.012894
0.012894
0.012894
0.0128848
0.0128848
0.0128848
0.0128848
0.0128848
0.0128848
0.0128571
0.0128571
0.0128571
0.0128571
0.0128571
0.0128571
0.0128571
0.0128571
0.012848
0.012848
0.012848
0.012848
0.0128297
0.0128297
0.0128297
0.0128297
0.0128297
0.0128297
0.0128297
0.0128297
0.0128297
0.0128297
0.0128297
0.0128297
0.0128297
0.0128297
0.0128205
0.0128205
0.0128205
0.0128205
0.0128114
0.0128114
0.0128114
0.0128114
0.0128114
0.0128114
0.0128114
0.0128114
0.0128114
0.0128114
0.0128114
0.0128114
0.0128114
0.0128114
0.0128114
0.0128114
0.0128114
0.0128114
0.0128114
0.0128114
0.0128114
0.0128114
0.0128114
0.0128114
0.0128114
0.0128114
0.0128114
0.0128114
0.0128114
0.0128114
0.0128114
0.0128114
0.0128114
0.0128114
0.0128114
0.0128114
0.0128114
0.0128114
0.0128114
0.0128114
0.0128114
0.0128114
0.0128114
0.0128114
0.0128114
0.0128114
0.0128114
0.0128114
0.0128114
0.0128114
0.0128114
0.0127932
0.0127932
0.0127932
0.0127932
0.0127932
0.0127932
0.0127932
0.0127932
0.0127932
0.0127932
0.0127932
0.0127932
0.0127932
0.0127932
0.0127932
0.0127932
0.0127932
0.0127932
0.0127932
0.0127932
0.0127932
0.0127932
0.0127932
0.0127932
0.0127932
0.0127932
0.0127932
0.0127932
0.0127932
0.0127932
0.0127932
0.0127932
0.0127932
0.0127932
0.0127932
0.0127932
0.0127932
0.0127932
0.0127932
0.0127932
0.0127932
0.0127932
0.0127932
0.0127932
0.0127932
0.0127932
0.0127932
0.0127932
0.0127932
0.0127932
0.0127932
0.0127932
0.0127932
0.0127932
0.0127932
0.0127841
0.0127841
0.0127841
0.0127841
0.0127841
0.0127841
0.0127841
0.0127841
0.012775
0.012775
0.012775
0.012775
0.0134656
0.0134656
0.0134656
0.0134656
0.0141543
0.0141543
0.0141343
0.0141343
0.0148305
0.0148305
0.0148096
0.0148096
0.0148096
0.0148096
0.0155148
0.0155148
0.0155148
0.0155148
0.0155148
0.0155148
0.0155148
0.0155148
0.0155148
0.0155148
0.0155148
0.0155148
0.0155148
0.0155148
0.0155148
0.0155148
0.0154712
0.0154712
0.0154712
0.0154712
0.0154712
0.0154712
0.0154712
0.0154712
0.0154712
0.0154603
0.0154386
0.0154386
0.0154386
0.0154386
0.0154386
0.0154386
0.0154386
0.0161177
0.0161177
0.0161177
0.0161177
0.0161177
0.016795
0.016795
0.016795
0.016795
0.016795
0.016795
0.016795
0.016795
0.016795
0.016795
0.016795
0.016795
0.016795
0.016795
0.016795
0.016795
0.016795
0.016795
0.016795
0.016795
0.016795
0.016795
0.016795
0.016795
0.016795
0.016795
0.0174459
0.0174459
0.0174459
0.0174459
0.0174459
0.0174459
0.0174459
0.0174459
0.0174459
0.0174459
0.0174459
0.0174459
0.0174459
0.0174459
0.0174459
0.0174459
0.0174459
0.0174459
0.0174459
0.0174459
0.0174459
0.0174459
0.0174459
0.0174459
0.0174459
0.0174459
0.0174459
0.0174459
0.0174459
0.0174459
0.0174459
0.0174459
0.0174459
0.0174459
0.0174459
0.0174459
0.0174459
0.0174459
0.0174459
0.0174459
0.0174459
0.0174459
0.0174459
0.0174459
0.0174459
0.0174459
0.0174459
0.0174459
0.0174459
0.0174459
0.0174459
0.0174459
0.0174459
0.0174459
0.0174459
0.0174459
0.0174459
0.0174459
0.0174459
0.0174459
0.0174459
0.0174459
0.0174459
0.0174459
0.0174459
0.0174459
0.0174459
0.0174459
0.0174459
0.0174459
0.0174459
0.0174459
0.0174459
0.0174459
0.0174459
0.0174459
0.0174459
0.0174459
0.0174459
0.0174459
0.0174459
0.0174459
0.0174338
0.0174338
0.0174338
0.0174338
0.0174095
0.0174095
0.0174095
0.0174095
0.0174095
0.0174095
0.0173732
0.0173732
0.0173732
0.0173732
0.0173732
0.0173732
0.0173732
0.0173732
0.0173732
0.017325
0.017301
0.017301
0.017301
0.017301
0.017301
0.0172414
0.0172414
0.0172414
0.0172414
0.0172414
0.0172414
0.0172414
0.0172295
0.0171939
0.0171939
0.0171939
0.0171939
0.0171939
0.0171939
0.0171939
0.0171939
0.0171939
0.0171939
0.0171939
0.0171939
0.0171939
0.0171939
0.0171939
0.0171939
0.0171939
0.0171939
0.0171939
0.0171939
0.0171939
0.0171939
0.0171939
0.0171939
0.0171939
0.0171939
0.0171821
0.0171821
0.0171821
0.0171821
0.0171821
0.0171821
0.0171821
0.0171821
0.0171821
0.0171821
0.0171821
0.0171821
0.0171821
0.0171821
0.0171821
0.0171821
0.0171821
0.0171821
0.0171585
0.0171585
0.0171585
0.0171585
0.0171585
0.0171585
0.0171585
0.0171585
0.0171585
0.0171585
0.0171585
0.0171585
0.0171585
0.0171585
0.0171585
0.0171585
0.0171585
0.0171585
0.0171585
0.0171585
0.0171585
0.0171585
0.0171468
0.0171468
0.0171468
0.0171468
0.0171468
0.0171468
0.0171468
0.0171468
0.0171468
0.0171468
0.0171468
0.0171468
0.0171468
0.0171468
0.0171468
0.0171468
0.0171468
0.0171468
0.0171468
0.0171468
0.0171468
0.0171468
0.0171468
0.017135
0.017135
0.0171116
0.0171116
0.0171116
0.0171116
0.0171116
0.0171116
0.0171116
0.0171116
0.0171116
0.0171116
0.0171116
0.0171116
0.0171116
0.0171116
0.0171116
0.0171116
0.0171116
0.0171116
0.0171116
0.0171116
0.0171116
0.0171116
0.0171116
0.0171116
0.0171116
0.0170999
0.0170999
0.0170999
0.0170999
0.0170882
0.0170882
0.0170882
0.0170882
0.0170882
0.0170882
0.0170882
0.0170882
0.0170882
0.0170882
0.0170882
0.0170882
0.0170882
0.0170882
0.0170882
0.0170882
0.0170882
0.0170882
0.0170882
0.0177717
0.0177717
0.0177717
0.0177717
0.0177717
0.0177717
0.0177717
0.0177717
0.0177717
0.0177717
0.0177717
0.0177717
0.0177717
0.0177717
0.0177717
0.0177717
0.0177717
0.0177717
0.0177717
0.0177717
0.0177717
0.0177596
0.0177596
0.0184426
0.0184426
0.0184049
0.0184049
0.0190088
0.0190088
0.0196477
0.0196477
0.0201613
0.0201613
0.0206667
0.0206667
0.021164
0.021164
0.0216535
0.0216535
0.0221354
0.0221354
0.0226098
0.0226098
0.0230769
0.0230769
0.0235369
0.0235369
0.0239899
0.0239899
0.0244361
0.0244361
0.0248756
0.0248756
0.0253086
0.0253086
0.0257353
0.0257353
0.0261557
0.0261557
0.02657
0.02657
0.0269784
0.0269784
0.027381
0.027381
0.0277778
0.0277778
0.0281856
0.0281856
0.0286048
0.0286048
0.029036
0.029036
0.0294798
0.0294798
0.0299367
0.0299367
0.0304073
0.0304073
0.0308924
0.0308924
0.0313927
0.0313927
0.0319088
0.0319088
0.0324417
0.0324417
0.032992
0.032992
0.0335609
0.0335609
0.0335609
0.0335609
0.0335037
0.0335037
0.0340136
0.0340136
0.0345413
0.0345413
0.0348706
0.0348706
0.0351955
0.0351955
0.0355161
0.0355161
0.0358324
0.0358324
0.0361446
0.0361446
0.0364527
0.0364527
0.0367568
0.0367568
0.0370569
0.0370569
0.0373533
0.0373533
0.0376458
0.0376458
0.0379347
0.0379347
0.0382199
0.0382199
0.0385016
0.0385016
0.0387797
0.0387797
0.0390545
0.0390545
0.0393258
0.0393258
0.0395939
0.0395939
0.0398587
0.0398587
0.0401204
0.0401204
0.0403789
0.0403789
0.0406343
0.0406343
0.0408867
0.0408867
0.0411361
0.0411361
0.0413827
0.0413827
0.0416263
0.0416263
0.0418672
0.0418672
0.0421053
0.0421053
0.0423406
0.0423406
0.0425733
0.0425733
0.0428034
0.0428034
0.0430309
0.0430309
0.0432558
0.0432558
0.0434783
0.0434783
0.0436983
0.0436983
0.0439158
0.0439158
0.044131
0.044131
0.0443439
0.0443439
0.0445545
0.0445545
0.0447628
0.0447628
0.0449688
0.0449688
0.0451727
0.0451727
0.0453744
0.0453744
0.0455741
0.0455741
0.0457716
0.0457716
0.045967
0.045967
0.0461605
0.0461605
0.0463519
0.0463519
0.0465414
0.0465414
0.0467488
0.0467488
0.0469742
0.0469742
0.0472175
0.0472175
0.047479
0.047479
0.0477587
0.0477587
0.0480568
0.0480568
0.0483736
0.0483736
0.0487094
0.0487094
0.0490644
0.0490644
0.0494391
0.0494391
0.0498339
0.0498339
0.0502492
0.0502492
0.0502492
0.0502492
0.0501658
0.0501658
0.0505176
0.0505176
0.0507845
0.0507845
0.0509449
0.0509449
0.0511038
0.0511038
0.0512612
0.0512612
0.051417
0.051417
0.0515713
0.0515713
0.0517241
0.0517241
0.0518755
0.0518755
0.0520254
0.0520254
0.0521739
0.0521739
0.052321
0.052321
0.0524667
0.0524667
0.0526111
0.0526111
0.0527541
0.0527541
0.0528958
0.0528958
0.0530361
0.0530361
0.0531752
0.0531752
0.053313
0.053313
0.0534496
0.0534496
0.0535849
0.0535849
0.053719
0.053719
0.0538519
0.0538519
0.0539836
0.0539836
0.0541142
0.0541142
0.0542435
0.0542435
0.0543718
0.0543718
0.0544989
0.0544989
0.0546249
0.0546249
0.0547498
0.0547498
0.0548736
0.0548736
0.0549964
0.0549964
0.0551181
0.0551181
0.0552388
0.0552388
0.0553584
0.0553584
0.055477
0.055477
0.0555947
0.0555947
0.0557113
0.0557113
0.0558269
0.0558269
0.0559416
0.0559416
0.0560554
0.0560554
0.0561682
0.0561682
0.05628
0.05628
0.056391
0.056391
0.056501
0.056501
0.0566102
0.0566102
0.0567184
0.0567184
0.0568258
0.0568258
0.0569324
0.0569324
0.057038
0.057038
0.0571618
0.0571618
0.0573037
0.0573037
0.0574637
0.0574637
0.0576416
0.0576416
0.0578377
0.0578377
0.0580518
0.0580518
0.0582842
0.0582842
0.058535
0.058535
0.0588043
0.0588043
0.0590924
0.0590924
0.0593995
0.0593995
0.0597258
0.0597258
0.0597258
0.0597258
0.0597258
0.0597258
0.059648
0.059648
0.0597403
0.0597403
0.0598318
0.0598318
0.0599227
0.0599227
0.0600128
0.0600128
0.0601023
0.0601023
0.0601911
0.0601911
0.0602792
0.0602792
0.0603666
0.0603666
0.0604534
0.0604534
0.0605395
0.0605395
0.060625
0.060625
0.0607098
0.0607098
0.060794
0.060794
0.0608776
0.0608776
0.0609606
0.0609606
0.0610429
0.0610429
0.0611247
0.0611247
0.0612058
0.0612058
0.0612864
0.0612864
0.0613664
0.0613664
0.0614458
0.0614458
0.0615246
0.0615246
0.0616029
0.0616029
0.0616806
0.0616806
0.0617577
0.0617577
0.0618343
0.0618343
0.0619104
0.0619104
0.0619859
0.0619859
0.0620609
0.0620609
0.0621354
0.0621354
0.0622093
0.0622093
0.0622827
0.0622827
0.0623557
0.0623557
0.0624281
0.0624281
0.0625
0.0625
0.0625714
0.0625714
0.0626424
0.0626424
0.0627128
0.0627128
0.0627828
0.0627828
0.0628523
0.0628523
0.0629213
0.0629213
0.0629899
0.0629899
0.063058
0.063058
0.0631257
0.0631257
0.0631929
0.0631929
0.0632597
0.0632597
0.063326
0.063326
0.0633919
0.0633919
0.0634573
0.0634573
0.0635397
0.0635397
0.0636388
0.0636388
0.0637547
0.0637547
0.0638874
0.0638874
0.0636805
0.0636805
0.0636805
0.0636805
0.0636805
0.0636119
0.0636119
0.0638298
0.0638298
0.0640819
0.0640819
0.0643338
0.0643338
0.0645682
0.0645682
0.0645161
0.0645161
0.0647154
0.0647154
0.0647752
0.0647752
0.0648346
0.0648346
0.0648936
0.0648936
0.0649523
0.0649523
0.0650106
0.0650106
0.0650685
0.0650685
0.0651261
0.0651261
0.0651832
0.0651832
0.0652401
0.0652401
0.0652966
0.0652966
0.0653527
0.0653527
0.0654085
0.0654085
0.0654639
0.0654639
0.065519
0.065519
0.0655738
0.0655738
0.0656282
0.0656282
0.0656823
0.0656823
0.065736
0.065736
0.0657895
0.0657895
0.0658426
0.0658426
0.0658954
0.0658954
0.0659478
0.0659478
0.066
0.066
0.0660518
0.0660518
0.0661034
0.0661034
0.0661546
0.0661546
0.0662055
0.0662055
0.0662562
0.0662562
0.0663065
0.0663065
0.0663565
0.0663565
0.0664062
0.0664062
0.0664557
0.0664557
0.0665049
0.0665049
0.0665537
0.0665537
0.0666023
0.0666023
0.0666506
0.0666506
0.0666987
0.0666987
0.0667464
0.0667464
0.0667939
0.0667939
0.0668411
0.0668411
0.066888
0.066888
0.0669347
0.0669347
0.0669811
0.0669811
0.0670273
0.0670273
0.0670889
0.0670889
0.0671659
0.0671659
0.0672583
0.0672583
0.067366
0.067366
0.0674889
0.0674889
0.0676272
0.0676272
0.0677809
0.0677809
0.0679499
0.0679499
0.0681344
0.0681344
0.0683345
0.0683345
0.0685503
0.0685503
0.0687818
0.0687818
0.0687818
0.0687818
0.0687182
0.0687182
0.0689017
0.0689017
0.069117
0.069117
0.0693161
0.0693161
0.069515
0.069515
0.0696816
0.0696816
0.0697193
0.0697193
0.0697568
0.0697568
0.0697941
0.0697941
0.0698311
0.0698311
0.069868
0.069868
0.0699047
0.0699047
0.0699411
0.0699411
0.0699774
0.0699774
0.0700135
0.0700135
0.0700494
0.0700494
0.0700851
0.0700851
0.0701206
0.0701206
0.0701559
0.0701559
0.070191
0.070191
0.070226
0.070226
0.0702607
0.0702607
0.0702953
0.0702953
0.0703297
0.0703297
0.0703639
0.0703639
0.0703979
0.0703979
0.0704317
0.0704317
0.0704654
0.0704654
0.0704989
0.0704989
0.0705322
0.0705322
0.0705654
0.0705654
0.0705984
0.0705984
0.0706312
0.0706312
0.0706638
0.0706638
0.0706963
0.0706963
0.0707286
0.0707286
0.0707607
0.0707607
0.0707927
0.0707927
0.0708245
0.0708245
0.0708562
0.0708562
0.0708877
0.0708877
0.070919
0.070919
0.0709502
0.0709502
0.0709812
0.0709812
0.0710121
0.0710121
0.0710121
0.0710121
0.0710428
0.0710428
0.0710734
0.0710734
0.0711038
0.0711038
0.071134
0.071134
0.0711641
0.0711641
0.0711941
0.0711941
0.0712385
0.0712385
0.0712972
0.0712972
0.0713703
0.0713703
0.0714577
0.0714577
0.0715593
0.0715593
0.0716751
0.0716751
0.0718053
0.0718053
0.0719497
0.0719497
0.0721086
0.0721086
0.0722818
0.0722818
0.0724696
0.0724696
0.0726721
0.0726721
0.0726721
0.0726721
0.072496
0.072496
0.0725222
0.0725222
0.0725482
0.0725482
0.0725742
0.0725742
0.0726
0.0726
0.0726257
0.0726257
0.0726513
0.0726513
0.0726767
0.0726767
0.0727021
0.0727021
0.0727273
0.0727273
0.0727524
0.0727524
0.0727773
0.0727773
0.0728022
0.0728022
0.0728269
0.0728269
0.0728516
0.0728516
0.0728761
0.0728761
0.0729005
0.0729005
0.0729247
0.0729247
0.0729489
0.0729489
0.072973
0.072973
0.0729969
0.0729969
0.0730208
0.0730208
0.0730445
0.0730445
0.0730681
0.0730681
0.0730916
0.0730916
0.073115
0.073115
0.0731383
0.0731383
0.0731615
0.0731615
0.0731846
0.0731846
0.0732075
0.0732075
0.0732304
0.0732304
0.0732532
0.0732532
0.0732759
0.0732759
0.0732984
0.0732984
0.0733209
0.0733209
0.0733433
0.0733433
0.0733655
0.0733655
0.0733877
0.0733877
0.0734098
0.0734098
0.0734317
0.0734317
0.0734536
0.0734536
0.0734754
0.0734754
0.0734971
0.0734971
0.0735187
0.0735187
0.0735401
0.0735401
0.0735615
0.0735615
0.0735828
0.0735828
0.0736041
0.0736041
0.0736252
0.0736252
0.0736462
0.0736462
0.0736671
0.0736671
0.0737012
0.0737012
0.0737484
0.0737484
0.0738087
0.0738087
0.0738819
0.0738819
0.0739682
0.0739682
0.0740675
0.0740675
0.0741797
0.0741797
0.0743051
0.0743051
0.0744435
0.0744435
0.074595
0.074595
0.0747597
0.0747597
0.0749377
0.0749377
0.0749244
0.0749244
0.0750756
0.0750756
0.0750932
0.0750932
0.0751107
0.0751107
0.0751282
0.0751282
0.0751455
0.0751455
0.0751628
0.0751628
0.07518
0.07518
0.0751972
0.0751972
0.0752143
0.0752143
0.0752313
0.0752313
0.0752482
0.0752482
0.0752651
0.0752651
0.0752819
0.0752819
0.0752986
0.0752986
0.0753153
0.0753153
0.0753318
0.0753318
0.0753484
0.0753484
0.0753648
0.0753648
0.0753812
0.0753812
0.0753975
0.0753975
0.0754138
0.0754138
0.0754299
0.0754299
0.075446
0.075446
0.0754621
0.0754621
0.0754781
0.0754781
0.075494
0.075494
0.0754685
0.0754685
0.0754685
0.0754685
0.0754685
0.0754685
0.0754558
0.075443
0.075443
0.075443
0.075443
0.075443
0.075443
0.075443
0.075443
0.075443
0.075443
0.075443
0.075443
0.075443
0.0754303
0.0754303
0.0754303
0.0754303
0.0754303
0.0754303
0.0754303
0.0754303
0.0754303
0.0754303
0.0754303
0.0754303
0.0754303
0.0754303
0.0754303
0.0754303
0.0754303
0.0754303
0.0754303
0.0754303
0.0754303
0.0754303
0.0754303
0.0754303
0.0754303
0.0754303
0.0754303
0.0754303
0.0754303
0.0754303
0.0754303
0.0754303
0.0754303
0.0754049
0.0754049
0.0754049
0.0754049
0.0754049
0.0753667
0.0753667
0.0753667
0.0753667
0.0753667
0.0752145
0.0752145
0.0753828
0.0753828
0.0755384
0.0755384
0.0755384
0.0756939
0.0756939
0.0758238
0.0758238
0.0759792
0.0761473
0.0761473
0.0763025
0.0763025
0.0763025
0.0764706
0.0764706
0.0765872
0.0765872
0.0767551
0.0767551
0.0768843
0.0768843
0.0768585
0.0770263
0.0771942
0.0771942
0.0771942
0.0771942
0.0771942
0.0771942
0.0771942
0.0771942
0.0771942
0.0771942
0.0771942
0.0771942
0.0771942
0.0771942
0.0771942
0.0771942
0.0771942
0.0771942
0.0771942
0.0771942
0.0771942
0.0771942
0.0771942
0.0771942
0.0771942
0.0771942
0.0771942
0.0771942
0.0771942
0.0771942
0.0771942
0.0771942
0.0771942
0.0771942
0.0771942
0.0771942
0.0771942
0.0771942
0.0771942
0.0771942
0.0771942
0.0771942
0.0771942
0.0771942
0.0771942
0.0771942
0.0771942
0.0771942
0.0771942
0.0771942
0.0771942
0.0771942
0.0771942
0.0771942
0.0771942
0.0771942
0.0771942
0.0771942
0.0771942
0.0771942
0.0771942
0.0771942
0.0771942
0.0771942
0.0771942
0.0771942
0.0771942
0.0771942
0.0771942
0.0771942
0.0771942
0.0771942
0.0771942
0.0771942
0.0771942
0.0771942
0.0771942
0.0771942
0.0771942
0.0771942
0.0771942
0.0771942
0.0771942
0.0771942
0.0771942
0.0771942
0.0771942
0.0771942
0.0771942
0.0771942
0.0771942
0.0771942
0.0771942
0.0771942
0.0771942
0.0771942
0.0771942
0.0771942
0.0771942
0.0771942
0.0771942
0.0771942
0.0771942
0.0771942
0.0771942
0.0771942
0.0771942
0.0771942
0.0771942
0.0771942
0.0771942
0.0771942
0.0771942
0.0771942
0.0771942
0.0771942
0.0771942
0.0771942
0.0771942
0.0771942
0.0771942
0.0771942
0.0771942
0.0771942
0.0771942
0.0771942
0.0771942
0.0771942
0.0771942
0.0771942
0.0771942
0.0771942
0.0771942
0.0771942
0.0771942
0.0771942
0.0771942
0.0771942
0.0771942
0.0771942
0.0771942
0.0771942
0.0771942
0.0771942
0.0771942
0.0771942
0.0771942
0.0771942
0.0771942
0.0771942
0.0771942
0.0771942
0.0771942
0.0771942
0.0771942
0.0771942
0.0771942
0.0771942
0.0771942
0.0771942
0.0771942
0.0771942
0.0771942
0.0771942
0.0771942
0.0771942
0.0771942
0.0771942
0.0771942
0.0771942
0.0771942
0.0771942
0.0771942
0.0771942
0.0771942
0.0771942
0.0771942
0.0771942
0.0771942
0.0771942
0.0771942
0.0771942
0.0771942
0.0771942
0.0771942
0.0771942
0.0771942
0.0771942
0.0771942
0.0771942
0.0771942
0.0771942
0.0771942
0.0771942
0.0771942
0.0771942
0.0771942
0.0771942
0.0771942
0.0771942
0.0771942
0.0771942
0.0771942
0.0771942
0.0771942
0.0771942
0.0771942
0.0771942
0.0771942
0.0771942
0.0771942
0.0771942
0.0771942
0.0771942
0.0771942
0.0771942
0.0771942
0.0771942
0.0771942
0.0771942
0.0771942
0.0771942
0.0771942
0.0771942
0.0771942
0.0771942
0.0771942
0.0771942
0.0771942
0.0771942
0.0771942
0.0771942
0.0771942
0.0771942
0.0771942
0.0771942
0.0771942
0.0771942
0.0771942
0.0771942
0.0771942
0.0771942
0.0771942
0.0771942
0.0771942
0.0771942
0.0771942
0.0771942
0.0771942
0.0771942
0.0771942
0.0771942
0.0771942
0.0771942
0.0771942
0.0771942
0.0771942
0.0771942
0.0771942
0.0771942
0.0771942
0.0771942
0.0771942
0.0771942
0.0771942
0.0771942
0.0771942
0.0771942
0.0771942
0.0771942
0.0771942
0.0771942
0.0771942
0.0771942
0.0771942
0.0771942
0.0771942
0.0771942
0.0771942
0.0771942
0.0771942
0.0771942
0.0771942
0.0771942
0.0771942
0.0771942
0.0771942
0.0771942
0.0771942
0.0771942
0.0771942
0.0771942
0.0771942
0.0771942
0.0771942
0.0771942
0.0771942
0.0771942
0.0771942
0.0771942
0.0771942
0.0771942
0.0771942
0.0771942
0.0771942
0.0771942
0.0771942
0.0771942
0.0771942
0.0771942
0.0771942
0.0771942
0.0771942
0.0771942
0.0771942
0.0771942
0.0771942
0.0771942
0.0771942
0.0771942
0.0771942
0.0771942
0.0771942
0.0771942
0.0771942
0.0771942
0.0771942
0.0771942
0.0771942
0.0771942
0.0771942
0.0771942
0.0771942
0.0771942
0.0771942
0.0771942
0.0771942
0.0771942
0.0771942
0.0771942
0.0771942
0.0771942
0.0771942
0.0771942
0.0771942
0.0771942
0.0771942
0.0771942
0.0771942
0.0771942
0.0771942
0.0771942
0.0771942
0.0771942
0.0771942
0.0771942
0.0771942
0.0771942
0.0771942
0.0771942
0.0771942
0.0771942
0.0771942
0.0771942
0.0771942
0.0771942
0.0771942
0.0771942
0.0771942
0.0771942
0.0771942
0.0771942
0.0771942
0.0771942
0.0771942
0.0771942
0.0771942
0.0771942
0.0771942
0.0771942
0.0771942
0.0771942
0.0771942
0.0771942
0.0771942
0.0771942
0.0771942
0.0771942
0.0771942
0.0771942
0.0771942
0.0771942
0.0771942
0.0771942
0.0771942
0.0771942
0.0771942
0.0771942
0.0771942
0.0771942
0.0771942
0.0771942
0.0771942
0.0771942
0.0771942
0.0771942
0.0771942
0.0771942
0.0771942
0.0771942
0.0771942
0.0771942
0.0771942
0.0771942
0.0771942
0.0771942
0.0771942
0.0771942
0.0771942
0.0771942
0.0771942
[...]
0.0855636
0.0855636
0.0855633
0.0855633
0.085563
0.085563
0.0855627
0.0855627
0.0855623
0.0855623
0.085562
0.085562
0.0855617
0.0855617
0.0855614
0.0855614
0.0855611
0.0855611
0.0855607
0.0855607
0.0855604
0.0855604
0.0855601
0.0855601
0.0855598
0.0855598
0.0855595
0.0855595
0.0855591
0.0855591
0.0855588
0.0855588
0.0855585
0.0855585
0.0855582
0.0855582
0.0855579
0.0855579
0.0855576
0.0855576
0.0855572
0.0855572
0.0855569
0.0855569
0.0855566
0.0855566
0.0855563
0.0855563
0.085556
0.085556
0.0855556
0.0855556
0.0855553
0.0855553
0.085555
0.085555
0.0855547
0.0855547
0.0855544
0.0855544
0.0855541
0.0855541
0.0855537
0.0855537
0.0855534
0.0855534
0.0855531
0.0855531
0.0855528
0.0855528
0.0855525
0.0855525
0.0855521
0.0855521
0.0855518
0.0855518
0.0855515
0.0855515
0.0855512
0.0855512
0.0855509
0.0855509
0.0855506
0.0855506
0.0855502
0.0855502
0.0855499
0.0855499
0.0855496
0.0855496
0.0855493
0.0855493
0.085549
0.085549
0.0855487
0.0855487
0.0855483
0.0855483
0.085548
0.085548
0.0855477
0.0855477
0.0855474
0.0855474
0.0855471
0.0855471
0.0855468
0.0855468
0.0855464
0.0855464
0.0855461
0.0855461
0.0855458
0.0855458
0.0855455
0.0855455
0.0855452
0.0855452
0.0855448
0.0855448
0.0855445
0.0855445
0.0855442
0.0855442
0.0855439
0.0855439
0.0855436
0.0855436
0.0855433
0.0855433
0.0855429
0.0855429
0.0855426
0.0855426
0.0855423
0.0855423
0.085542
0.085542
0.0855417
0.0855417
0.0855414
0.0855414
0.0855413
0.0855413
0.0855412
0.0855412
0.0855414
0.0855414
0.0855415
0.0855415
0.085542
0.085542
0.0855424
0.0855424
0.085543
0.085543
0.0855437
0.0855437
0.0855446
0.0855446
0.0855454
0.0855454
0.0855466
0.0855466
0.0855477
0.0855477
0.0855491
0.0855491
0.0855505
0.0855505
0.0855521
0.0855521
0.0855537
0.0855537
0.0855556
0.0855556
0.0855574
0.0855574
0.0855595
0.0855595
0.0855616
0.0855616
0.085564
0.085564
0.0855663
0.0855663
0.0855689
0.0855689
0.0855715
0.0855715
0.0855743
0.0855743
0.0855772
0.0855772
0.0855772
0.0855772
0.0855772
0.0855772
0.085574
0.085574
0.0855709
0.0855709
0.0855705
0.0855705
0.0855702
0.0855702
0.0855699
0.0855699
0.0855696
0.0855696
0.0855693
0.0855693
0.085569
0.085569
0.0855686
0.0855686
0.0855683
0.0855683
0.085568
0.085568
0.0855677
0.0855677
0.0855674
0.0855674
0.085567
0.085567
0.0855667
0.0855667
0.0855664
0.0855664
0.0855661
0.0855661
0.0855658
0.0855658
0.0855655
0.0855655
0.0855651
0.0855651
0.0855648
0.0855648
0.0855645
0.0855645
0.0855642
0.0855642
0.0855639
0.0855639
0.0855636
0.0855636
0.0855632
0.0855632
0.0855629
0.0855629
0.0855626
0.0855626
0.0855623
0.0855623
0.085562
0.085562
0.0855616
0.0855616
0.0855613
0.0855613
0.085561
0.085561
0.0855607
0.0855607
0.0855604
0.0855604
0.0855601
0.0855601
0.0855597
0.0855597
0.0855594
0.0855594
0.0855591
0.0855591
0.0855588
0.0855588
0.0855585
0.0855585
0.0855582
0.0855582
0.0855578
0.0855578
0.0855575
0.0855575
0.0855572
0.0855572
0.0855569
0.0855569
0.0855566
0.0855566
0.0855563
0.0855563
0.0855559
0.0855559
0.0855556
0.0855556
0.0855553
0.0855553
0.085555
0.085555
0.0855547
0.0855547
0.0855544
0.0855544
0.085554
0.085554
0.0855537
0.0855537
0.0855534
0.0855534
0.0855531
0.0855531
0.0855528
0.0855528
0.0855525
0.0855525
0.0855521
0.0855521
0.0855518
0.0855518
0.0855515
0.0855515
0.0855512
0.0855512
0.0855509
0.0855509
0.0855506
0.0855506
0.0855502
0.0855502
0.0855499
0.0855499
0.0855496
0.0855496
0.0855493
0.0855493
0.085549
0.085549
0.0855487
0.0855487
0.0855483
0.0855483
0.085548
0.085548
0.0855477
0.0855477
0.0855474
0.0855474
0.0855471
0.0855471
0.0855468
0.0855468
0.0855464
0.0855464
0.0855461
0.0855461
0.0855458
0.0855458
0.0855455
0.0855455
0.0855452
0.0855452
0.0855449
0.0855449
0.0855445
0.0855445
0.0855442
0.0855442
0.0855439
0.0855439
0.0855436
0.0855436
0.0855433
0.0855433
0.085543
0.085543
0.0855427
0.0855427
0.0855423
0.0855423
0.085542
0.085542
0.0855417
0.0855417
0.0855414
0.0855414
0.0855411
0.0855411
0.0855408
0.0855408
0.0855404
0.0855404
0.0855401
0.0855401
0.0855398
0.0855398
0.0855397
0.0855397
0.0855397
0.0855397
0.0855398
0.0855398
0.08554
0.08554
0.0855404
0.0855404
0.0855408
0.0855408
0.0855415
0.0855415
0.0855421
0.0855421
0.085543
0.085543
0.0855439
0.0855439
0.085545
0.085545
0.0855461
0.0855461
0.0855475
0.0855475
0.0855489
0.0855489
0.0855505
0.0855505
0.0855521
0.0855521
0.085554
0.085554
0.0855558
0.0855558
0.0855579
0.0855579
0.08556
0.08556
0.0855623
0.0855623
0.0855647
0.0855647
0.0855673
0.0855673
0.0855698
0.0855698
0.0855726
0.0855726
0.0855755
0.0855755
0.0855755
0.0855755
0.0855755
0.0855755
0.0855723
0.0855723
0.0855692
0.0855692
0.0855689
0.0855689
0.0855686
0.0855686
0.0855682
0.0855682
0.0855679
0.0855679
0.0855676
0.0855676
0.0855673
0.0855673
0.085567
0.085567
0.0855667
0.0855667
0.0855663
0.0855663
0.085566
0.085566
0.0855657
0.0855657
0.0855654
0.0855654
0.0855651
0.0855651
0.0855648
0.0855648
0.0855644
0.0855644
0.0855641
0.0855641
0.0855638
0.0855638
0.0855635
0.0855635
0.0855632
0.0855632
0.0855629
0.0855629
0.0855626
0.0855626
0.0855622
0.0855622
0.0855619
0.0855619
0.0855616
0.0855616
0.0855613
0.0855613
0.085561
0.085561
0.0855607
0.0855607
0.0855603
0.0855603
0.08556
0.08556
0.0855597
0.0855597
0.0855594
0.0855594
0.0855591
0.0855591
0.0855588
0.0855588
0.0855584
0.0855584
0.0855581
0.0855581
0.0855578
0.0855578
0.0855575
0.0855575
0.0855572
0.0855572
0.0855569
0.0855569
0.0855565
0.0855565
0.0855562
0.0855562
0.0855559
0.0855559
0.0855556
0.0855556
0.0855553
0.0855553
0.085555
0.085555
0.0855547
0.0855547
0.0855543
0.0855543
0.085554
0.085554
0.0855537
0.0855537
0.0855534
0.0855534
0.0855531
0.0855531
0.0855528
0.0855528
0.0855524
0.0855524
0.0855521
0.0855521
0.0855518
0.0855518
0.0855515
0.0855515
0.0855512
0.0855512
0.0855509
0.0855509
0.0855506
0.0855506
0.0855502
0.0855502
0.0855499
0.0855499
0.0855496
0.0855496
0.0855493
0.0855493
0.085549
0.085549
0.0855487
0.0855487
0.0855484
0.0855484
0.085548
0.085548
0.0855477
0.0855477
0.0855474
0.0855474
0.0855471
0.0855471
0.0855468
0.0855468
0.0855465
0.0855465
0.0855461
0.0855461
0.0855458
0.0855458
0.0855455
0.0855455
0.0855452
0.0855452
0.0855449
0.0855449
0.0855446
0.0855446
0.0855443
0.0855443
0.0855439
0.0855439
0.0855436
0.0855436
0.0855433
0.0855433
0.085543
0.085543
0.0855427
0.0855427
0.0855424
0.0855424
0.0855421
0.0855421
0.0855417
0.0855417
0.0855414
0.0855414
0.0855411
0.0855411
0.0855408
0.0855408
0.0855405
0.0855405
0.0855402
0.0855402
0.0855399
0.0855399
0.0855395
0.0855395
0.0855392
0.0855392
0.0855389
0.0855389
0.0855386
0.0855386
0.0855383
0.0855383
0.0855382
0.0855382
0.0855381
0.0855381
0.0855383
0.0855383
0.0855385
0.0855385
0.0855389
0.0855389
0.0855393
0.0855393
0.0855399
0.0855399
0.0855406
0.0855406
0.0855415
0.0855415
0.0855423
0.0855423
0.0855435
0.0855435
0.0855446
0.0855446
0.085546
0.085546
0.0855473
0.0855473
0.0855489
0.0855489
0.0855505
0.0855505
0.0855524
0.0855524
0.0855542
0.0855542
0.0855563
0.0855563
0.0855584
0.0855584
0.0855607
0.0855607
0.085563
0.085563
0.0855656
0.0855656
0.0855682
0.0855682
0.085571
0.085571
0.0855738
0.0855738
0.0855738
0.0855738
0.0855738
0.0855738
0.0855707
0.0855707
0.0855675
0.0855675
0.0855672
0.0855672
0.0855669
0.0855669
0.0855666
0.0855666
0.0855663
0.0855663
0.085566
0.085566
0.0855657
0.0855657
0.0855653
0.0855653
0.085565
0.085565
0.0855647
0.0855647
0.0855644
0.0855644
0.0855641
0.0855641
0.0855638
0.0855638
0.0855634
0.0855634
0.0855631
0.0855631
0.0855628
0.0855628
0.0855625
0.0855625
0.0855622
0.0855622
0.0855619
0.0855619
0.0855616
0.0855616
0.0855612
0.0855612
0.0855609
0.0855609
0.0855606
0.0855606
0.0855603
0.0855603
0.08556
0.08556
0.0855597
0.0855597
0.0855594
0.0855594
0.085559
0.085559
0.0855587
0.0855587
0.0855584
0.0855584
0.0855581
0.0855581
0.0855578
0.0855578
0.0855575
0.0855575
0.0855572
0.0855572
0.0855568
0.0855568
0.0855565
0.0855565
0.0855562
0.0855562
0.0855559
0.0855559
0.0855556
0.0855556
0.0855553
0.0855553
0.085555
0.085555
0.0855546
0.0855546
0.0855543
0.0855543
0.085554
0.085554
0.0855537
0.0855537
0.0855534
0.0855534
0.0855531
0.0855531
0.0855528
0.0855528
0.0855524
0.0855524
0.0855521
0.0855521
0.0855518
0.0855518
0.0855515
0.0855515
0.0855512
0.0855512
0.0855509
0.0855509
0.0855506
0.0855506
0.0855502
0.0855502
0.0855499
0.0855499
0.0855496
0.0855496
0.0855493
0.0855493
0.085549
0.085549
0.0855487
0.0855487
0.0855484
0.0855484
0.085548
0.085548
0.0855477
0.0855477
0.0855474
0.0855474
0.0855471
0.0855471
0.0855468
0.0855468
0.0855465
0.0855465
0.0855462
0.0855462
0.0855458
0.0855458
0.0855455
0.0855455
0.0855452
0.0855452
0.0855449
0.0855449
0.0855446
0.0855446
0.0855443
0.0855443
0.085544
0.085544
0.0855437
0.0855437
0.0855433
0.0855433
0.085543
0.085543
0.0855427
0.0855427
0.0855424
0.0855424
0.0855421
0.0855421
0.0855418
0.0855418
0.0855415
0.0855415
0.0855411
0.0855411
0.0855408
0.0855408
0.0855405
0.0855405
0.0855402
0.0855402
0.0855399
0.0855399
0.0855396
0.0855396
0.0855393
0.0855393
0.085539
0.085539
0.0855386
0.0855386
0.0855383
0.0855383
0.085538
0.085538
0.0855377
0.0855377
0.0855374
0.0855374
0.0855371
0.0855371
0.0855368
0.0855368
0.0855367
0.0855367
0.0855366
0.0855366
0.0855368
0.0855368
0.0855369
0.0855369
0.0855373
0.0855373
0.0855378
0.0855378
0.0855384
0.0855384
0.085539
0.085539
0.0855399
0.0855399
0.0855408
0.0855408
0.0855419
0.0855419
0.085543
0.085543
0.0855444
0.0855444
0.0855458
0.0855458
0.0855474
0.0855474
0.085549
0.085549
0.0855508
0.0855508
0.0855526
0.0855526
0.0855547
0.0855547
0.0855568
0.0855568
0.0855591
0.0855591
0.0855614
0.0855614
0.085564
0.085564
0.0855665
0.0855665
0.0855693
0.0855693
0.0855721
0.0855721
0.0855721
0.0855721
0.0855721
0.0855721
0.085569
0.085569
0.0855659
0.0855659
0.0855656
0.0855656
0.0855653
0.0855653
0.085565
0.085565
0.0855646
0.0855646
0.0855643
0.0855643
0.085564
0.085564
0.0855637
0.0855637
0.0855634
0.0855634
0.0855631
0.0855631
0.0855628
0.0855628
0.0855625
0.0855625
0.0855621
0.0855621
0.0855618
0.0855618
0.0855615
0.0855615
0.0855612
0.0855612
0.0855609
0.0855609
0.0855606
0.0855606
0.0855603
0.0855603
0.0855599
0.0855599
0.0855596
0.0855596
0.0855593
0.0855593
0.085559
0.085559
0.0855587
0.0855587
0.0855584
0.0855584
0.0855581
0.0855581
0.0855578
0.0855578
0.0855574
0.0855574
0.0855571
0.0855571
0.0855568
0.0855568
0.0855565
0.0855565
0.0855562
0.0855562
0.0855559
0.0855559
0.0855556
0.0855556
0.0855552
0.0855552
0.0855549
0.0855549
0.0855546
0.0855546
0.0855543
0.0855543
0.085554
0.085554
0.0855537
0.0855537
0.0855534
0.0855534
0.0855531
0.0855531
0.0855527
0.0855527
0.0855524
0.0855524
0.0855521
0.0855521
0.0855518
0.0855518
0.0855515
0.0855515
0.0855512
0.0855512
0.0855509
0.0855509
0.0855506
0.0855506
0.0855502
0.0855502
0.0855499
0.0855499
0.0855496
0.0855496
0.0855493
0.0855493
0.085549
0.085549
0.0855487
0.0855487
0.0855484
0.0855484
0.0855481
0.0855481
0.0855477
0.0855477
0.0855474
0.0855474
0.0855471
0.0855471
0.0855468
0.0855468
0.0855465
0.0855465
0.0855462
0.0855462
0.0855459
0.0855459
0.0855456
0.0855456
0.0855452
0.0855452
0.0855449
0.0855449
0.0855446
0.0855446
0.0855443
0.0855443
0.085544
0.085544
0.0855437
0.0855437
0.0855434
0.0855434
0.0855431
0.0855431
0.0855427
0.0855427
0.0855424
0.0855424
0.0855421
0.0855421
0.0855418
0.0855418
0.0855415
0.0855415
0.0855412
0.0855412
0.0855409
0.0855409
0.0855406
0.0855406
0.0855402
0.0855402
0.0855399
0.0855399
0.0855396
0.0855396
0.0855393
0.0855393
0.085539
0.085539
0.0855387
0.0855387
0.0855384
0.0855384
0.0855381
0.0855381
0.0855377
0.0855377
0.0855374
0.0855374
0.0855371
0.0855371
0.0855368
0.0855368
0.0855365
0.0855365
0.0855362
0.0855362
0.0855359
0.0855359
0.0855356
0.0855356
0.0855353
0.0855353
0.0855352
0.0855352
0.0855351
0.0855351
0.0855353
0.0855353
0.0855354
0.0855354
0.0855358
0.0855358
0.0855362
0.0855362
0.0855369
0.0855369
0.0855375
0.0855375
0.0855384
0.0855384
0.0855393
0.0855393
0.0855404
0.0855404
0.0855415
0.0855415
0.0855429
0.0855429
0.0855442
0.0855442
0.0855458
0.0855458
0.0855474
0.0855474
0.0855492
0.0855492
0.0855511
0.0855511
0.0855531
0.0855531
0.0855552
0.0855552
0.0855575
0.0855575
0.0855598
0.0855598
0.0855624
0.0855624
0.0855649
0.0855649
0.0855677
0.0855677
0.0855705
0.0855705
0.0855705
0.0855705
0.0855705
0.0855705
0.0855674
0.0855674
0.0855643
0.0855643
0.085564
0.085564
0.0855637
0.0855637
0.0855633
0.0855633
0.085563
0.085563
0.0855627
0.0855627
0.0855624
0.0855624
0.0855621
0.0855621
0.0855618
0.0855618
0.0855615
0.0855615
0.0855612
0.0855612
0.0855608
0.0855608
0.0855605
0.0855605
0.0855602
0.0855602
0.0855599
0.0855599
0.0855596
0.0855596
0.0855593
0.0855593
0.085559
0.085559
0.0855587
0.0855587
0.0855583
0.0855583
0.085558
0.085558
0.0855577
0.0855577
0.0855574
0.0855574
0.0855571
0.0855571
0.0855568
0.0855568
0.0855565
0.0855565
0.0855562
0.0855562
0.0855558
0.0855558
0.0855555
0.0855555
0.0855552
0.0855552
0.0855549
0.0855549
0.0855546
0.0855546
0.0855543
0.0855543
0.085554
0.085554
0.0855537
0.0855537
0.0855534
0.0855534
0.085553
0.085553
0.0855527
0.0855527
0.0855524
0.0855524
0.0855521
0.0855521
0.0855518
0.0855518
0.0855515
0.0855515
0.0855512
0.0855512
0.0855509
0.0855509
0.0855505
0.0855505
0.0855502
0.0855502
0.0855499
0.0855499
0.0855496
0.0855496
0.0855493
0.0855493
0.085549
0.085549
0.0855487
0.0855487
0.0855484
0.0855484
0.0855481
0.0855481
0.0855477
0.0855477
0.0855474
0.0855474
0.0855471
0.0855471
0.0855468
0.0855468
0.0855465
0.0855465
0.0855462
0.0855462
0.0855459
0.0855459
0.0855456
0.0855456
0.0855453
0.0855453
0.0855449
0.0855449
0.0855446
0.0855446
0.0855443
0.0855443
0.085544
0.085544
0.0855437
0.0855437
0.0855434
0.0855434
0.0855431
0.0855431
0.0855428
0.0855428
0.0855425
0.0855425
0.0855421
0.0855421
0.0855418
0.0855418
0.0855415
0.0855415
0.0855412
0.0855412
0.0855409
0.0855409
0.0855406
0.0855406
0.0855403
0.0855403
0.08554
0.08554
0.0855397
0.0855397
0.0855393
0.0855393
0.085539
0.085539
0.0855387
0.0855387
0.0855384
0.0855384
0.0855381
0.0855381
0.0855378
0.0855378
0.0855375
0.0855375
0.0855372
0.0855372
0.0855369
0.0855369
0.0855366
0.0855366
0.0855362
0.0855362
0.0855359
0.0855359
0.0855356
0.0855356
0.0855353
0.0855353
0.085535
0.085535
0.0855347
0.0855347
0.0855344
0.0855344
0.0855341
0.0855341
0.0855338
0.0855338
0.0855337
0.0855337
0.0855336
0.0855336
0.0855338
0.0855338
0.0855339
0.0855339
0.0855343
0.0855343
0.0855347
0.0855347
0.0855354
0.0855354
0.085536
0.085536
0.0855369
0.0855369
0.0855378
0.0855378
0.0855389
0.0855389
0.08554
0.08554
0.0855413
0.0855413
0.0855427
0.0855427
0.0855443
0.0855443
0.0855459
0.0855459
0.0855477
0.0855477
0.0855495
0.0855495
0.0855516
0.0855516
0.0855536
0.0855536
0.0855559
0.0855559
0.0855582
0.0855582
0.0855608
0.0855608
0.0855633
0.0855633
0.0855661
0.0855661
0.0855688
0.0855688
0.0855688
0.0855688
0.0855688
0.0855688
0.0855658
0.0855658
0.0855627
0.0855627
0.0855624
0.0855624
0.085562
0.085562
0.0855617
0.0855617
0.0855614
0.0855614
0.0855611
0.0855611
0.0855608
0.0855608
0.0855605
0.0855605
0.0855602
0.0855602
0.0855599
0.0855599
0.0855596
0.0855596
0.0855592
0.0855592
0.0855589
0.0855589
0.0855586
0.0855586
0.0855583
0.0855583
0.085558
0.085558
0.0855577
0.0855577
0.0855574
0.0855574
0.0855571
0.0855571
0.0855568
0.0855568
0.0855564
0.0855564
0.0855561
0.0855561
0.0855558
0.0855558
0.0855555
0.0855555
0.0855552
0.0855552
0.0855549
0.0855549
0.0855546
0.0855546
0.0855543
0.0855543
0.085554
0.085554
0.0855537
0.0855537
0.0855533
0.0855533
0.085553
0.085553
0.0855527
0.0855527
0.0855524
0.0855524
0.0855521
0.0855521
0.0855518
0.0855518
0.0855515
0.0855515
0.0855512
0.0855512
0.0855509
0.0855509
0.0855505
0.0855505
0.0855502
0.0855502
0.0855499
0.0855499
0.0855496
0.0855496
0.0855493
0.0855493
0.085549
0.085549
0.0855487
0.0855487
0.0855484
0.0855484
0.0855481
0.0855481
0.0855478
0.0855478
0.0855474
0.0855474
0.0855471
0.0855471
0.0855468
0.0855468
0.0855465
0.0855465
0.0855462
0.0855462
0.0855459
0.0855459
0.0855456
0.0855456
0.0855453
0.0855453
0.085545
0.085545
0.0855447
0.0855447
0.0855443
0.0855443
0.085544
0.085544
0.0855437
0.0855437
0.0855434
0.0855434
0.0855431
0.0855431
0.0855428
0.0855428
0.0855425
0.0855425
0.0855422
0.0855422
0.0855419
0.0855419
0.0855416
0.0855416
0.0855412
0.0855412
0.0855409
0.0855409
0.0855406
0.0855406
0.0855403
0.0855403
0.08554
0.08554
0.0855397
0.0855397
0.0855394
0.0855394
0.0855391
0.0855391
0.0855388
0.0855388
0.0855385
0.0855385
0.0855382
0.0855382
0.0855378
0.0855378
0.0855375
0.0855375
0.0855372
0.0855372
0.0855369
0.0855369
0.0855366
0.0855366
0.0855363
0.0855363
0.085536
0.085536
0.0855357
0.0855357
0.0855354
0.0855354
0.0855351
0.0855351
0.0855347
0.0855347
0.0855344
0.0855344
0.0855341
0.0855341
0.0855338
0.0855338
0.0855335
0.0855335
0.0855332
0.0855332
0.0855329
0.0855329
0.0855326
0.0855326
0.0855323
0.0855323
0.0855322
0.0855322
0.0855321
0.0855321
0.0855323
0.0855323
0.0855325
0.0855325
0.0855329
0.0855329
0.0855333
0.0855333
0.0855339
0.0855339
0.0855345
0.0855345
0.0855354
0.0855354
0.0855363
0.0855363
0.0855374
0.0855374
0.0855385
0.0855385
0.0855398
0.0855398
0.0855412
0.0855412
0.0855428
0.0855428
0.0855443
0.0855443
0.0855461
0.0855461
0.085548
0.085548
0.08555
0.08555
0.0855521
0.0855521
0.0855544
0.0855544
0.0855566
0.0855566
0.0855592
0.0855592
0.0855617
0.0855617
0.0855644
0.0855644
0.0855672
0.0855672
0.0855672
0.0855672
0.0855672
0.0855672
0.0855641
0.0855641
0.0855611
0.0855611
0.0855608
0.0855608
0.0855604
0.0855604
0.0855601
0.0855601
0.0855598
0.0855598
0.0855595
0.0855595
0.0855592
0.0855592
0.0855589
0.0855589
0.0855586
0.0855586
0.0855583
0.0855583
0.085558
0.085558
0.0855577
0.0855577
0.0855574
0.0855574
0.085557
0.085557
0.0855567
0.0855567
0.0855564
0.0855564
0.0855561
0.0855561
0.0855558
0.0855558
0.0855555
0.0855555
0.0855552
0.0855552
0.0855549
0.0855549
0.0855546
0.0855546
0.0855543
0.0855543
0.0855539
0.0855539
0.0855536
0.0855536
0.0855533
0.0855533
0.085553
0.085553
0.0855527
0.0855527
0.0855524
0.0855524
0.0855521
0.0855521
0.0855518
0.0855518
0.0855515
0.0855515
0.0855512
0.0855512
0.0855509
0.0855509
0.0855505
0.0855505
0.0855502
0.0855502
0.0855499
0.0855499
0.0855496
0.0855496
0.0855493
0.0855493
0.085549
0.085549
0.0855487
0.0855487
0.0855484
0.0855484
0.0855481
0.0855481
0.0855478
0.0855478
0.0855475
0.0855475
0.0855471
0.0855471
0.0855468
0.0855468
0.0855465
0.0855465
0.0855462
0.0855462
0.0855459
0.0855459
0.0855456
0.0855456
0.0855453
0.0855453
0.085545
0.085545
0.0855447
0.0855447
0.0855444
0.0855444
0.0855441
0.0855441
0.0855437
0.0855437
0.0855434
0.0855434
0.0855431
0.0855431
0.0855428
0.0855428
0.0855425
0.0855425
0.0855422
0.0855422
0.0855419
0.0855419
0.0855416
0.0855416
0.0855413
0.0855413
0.085541
0.085541
0.0855407
0.0855407
0.0855404
0.0855404
0.08554
0.08554
0.0855397
0.0855397
0.0855394
0.0855394
0.0855391
0.0855391
0.0855388
0.0855388
0.0855385
0.0855385
0.0855382
0.0855382
0.0855379
0.0855379
0.0855376
0.0855376
0.0855373
0.0855373
0.085537
0.085537
0.0855367
0.0855367
0.0855363
0.0855363
0.085536
0.085536
0.0855357
0.0855357
0.0855354
0.0855354
0.0855351
0.0855351
0.0855348
0.0855348
0.0855345
0.0855345
0.0855342
0.0855342
0.0855339
0.0855339
0.0855336
0.0855336
0.0855333
0.0855333
0.085533
0.085533
0.0855327
0.0855327
0.0855323
0.0855323
0.085532
0.085532
0.0855317
0.0855317
0.0855314
0.0855314
0.0855311
0.0855311
0.0855308
0.0855308
0.0855307
0.0855307
0.0855307
0.0855307
0.0855308
0.0855308
0.085531
0.085531
0.0855314
0.0855314
0.0855318
0.0855318
0.0855324
0.0855324
0.085533
0.085533
0.0855339
0.0855339
0.0855348
0.0855348
0.0855359
0.0855359
0.085537
0.085537
0.0855383
0.0855383
0.0855397
0.0855397
0.0855412
0.0855412
0.0855428
0.0855428
0.0855446
0.0855446
0.0855464
0.0855464
0.0855485
0.0855485
0.0855505
0.0855505
0.0855528
0.0855528
0.0855551
0.0855551
0.0855576
0.0855576
0.0855601
0.0855601
0.0855628
0.0855628
0.0855656
0.0855656
0.0855656
0.0855656
0.0855656
0.0855656
0.0855625
0.0855625
0.0855595
0.0855595
0.0855592
0.0855592
0.0855589
0.0855589
0.0855586
0.0855586
0.0855582
0.0855582
0.0855579
0.0855579
0.0855576
0.0855576
0.0855573
0.0855573
0.085557
0.085557
0.0855567
0.0855567
0.0855564
0.0855564
0.0855561
0.0855561
0.0855558
user interrupt received (0) @ 112053126000
